version 3
run Default-0-20250428-13:40:05-246
attr configname Default
attr datetime 20250428-13:40:05
attr datetimef 20250428-134005
attr experiment Default
attr inifile omnetpp.ini
attr iterationvars ""
attr iterationvarsd ""
attr iterationvarsf ""
attr measurement ""
attr network RSUExampleScenario
attr processid 246
attr repetition 0
attr replication #0
attr resultdir /simulation/project/results
attr runnumber 0
attr seedset 0
config result-dir /simulation/project/results
config cmdenv-express-mode true
config cmdenv-autoflush true
config cmdenv-status-frequency 1s
config **.cmdenv-log-level info
config image-path ../../images
config network RSUExampleScenario
config debug-on-errors true
config print-undisposed true
config sim-time-limit 200s
config **.scalar-recording true
config **.vector-recording true
config *.playgroundSizeX 2500m
config *.playgroundSizeY 2500m
config *.playgroundSizeZ 50m
config *.annotations.draw true
config *.obstacles.obstacles "xmldoc(\"config.xml\", \"//AnalogueModel[@type='SimpleObstacleShadowing']/obstacles\")"
config *.manager.updateInterval 1s
config *.manager.host "\"localhost\""
config *.manager.port 9999
config *.manager.autoShutdown true
config *.manager.launchConfig "xmldoc(\"erlangen.launchd.xml\")"
config *.manager.trafficLightModuleType "\"org.car2x.veins.nodes.TrafficLight\""
config *.tls[*].mobility.x 0
config *.tls[*].mobility.y 0
config *.tls[*].mobility.z 3
config *.tls[*].applType "\"org.car2x.veins.modules.application.traci.TraCIDemoTrafficLightApp\""
config *.tls[*].logicType "\"org.car2x.veins.modules.world.traci.trafficLight.logics.TraCITrafficLightSimpleLogic\""
config *.rsu[0].mobility.x 2000
config *.rsu[0].mobility.y 2000
config *.rsu[0].mobility.z 3
config *.rsu[*].applType "\"TraCIDemoRSU11p\""
config *.rsu[*].appl.headerLength "80 bit"
config *.rsu[*].appl.sendBeacons false
config *.rsu[*].appl.dataOnSch false
config *.rsu[*].appl.beaconInterval 1s
config *.rsu[*].appl.beaconUserPriority 7
config *.rsu[*].appl.dataUserPriority 5
config *.rsu[*].nic.phy80211p.antennaOffsetZ "0 m"
config *.connectionManager.sendDirect true
config *.connectionManager.maxInterfDist 2600m
config *.connectionManager.drawMaxIntfDist false
config *.**.nic.mac1609_4.useServiceChannel false
config *.**.nic.mac1609_4.txPower 20mW
config *.**.nic.mac1609_4.bitrate 6Mbps
config *.**.nic.phy80211p.minPowerLevel -110dBm
config *.**.nic.phy80211p.useNoiseFloor true
config *.**.nic.phy80211p.noiseFloor -98dBm
config *.**.nic.phy80211p.decider "xmldoc(\"config.xml\")"
config *.**.nic.phy80211p.analogueModels "xmldoc(\"config.xml\")"
config *.**.nic.phy80211p.usePropagationDelay true
config *.**.nic.phy80211p.antenna "xmldoc(\"antenna.xml\", \"/root/Antenna[@id='monopole']\")"
config *.node[*].nic.phy80211p.antennaOffsetY "0 m"
config *.node[*].nic.phy80211p.antennaOffsetZ "1.895 m"
config *.node[*].applType "\"TraCIDemo11p\""
config *.node[*].appl.headerLength "80 bit"
config *.node[*].appl.sendBeacons false
config *.node[*].appl.dataOnSch false
config *.node[*].appl.beaconInterval 1s
config *.node[*].veinsmobility.x 0
config *.node[*].veinsmobility.y 0
config *.node[*].veinsmobility.z 0
config *.node[*].veinsmobility.setHostSpeed false
config *.node[*0].veinsmobility.accidentCount 1
config *.node[*0].veinsmobility.accidentStart 73s
config *.node[*0].veinsmobility.accidentDuration 50s

vector 0 RSUExampleScenario.rsu[0].nic.phy80211p RadioState ETV
vector 1 RSUExampleScenario.rsu[0].nic.phy80211p RadioChannel ETV
vector 2 RSUExampleScenario.node[0].nic.phy80211p RadioState ETV
vector 3 RSUExampleScenario.node[0].nic.phy80211p RadioChannel ETV
vector 4 RSUExampleScenario.manager posx ETV
vector 5 RSUExampleScenario.manager posy ETV
vector 6 RSUExampleScenario.manager speed ETV
vector 7 RSUExampleScenario.manager acceleration ETV
vector 8 RSUExampleScenario.manager co2emission ETV
vector 9 RSUExampleScenario.node[1].nic.phy80211p RadioState ETV
vector 10 RSUExampleScenario.node[1].nic.phy80211p RadioChannel ETV
vector 11 RSUExampleScenario.manager posx ETV
vector 12 RSUExampleScenario.manager posy ETV
vector 13 RSUExampleScenario.manager speed ETV
vector 14 RSUExampleScenario.manager acceleration ETV
vector 15 RSUExampleScenario.manager co2emission ETV
vector 16 RSUExampleScenario.node[2].nic.phy80211p RadioState ETV
vector 17 RSUExampleScenario.node[2].nic.phy80211p RadioChannel ETV
vector 18 RSUExampleScenario.manager posx ETV
vector 19 RSUExampleScenario.manager posy ETV
vector 20 RSUExampleScenario.manager speed ETV
vector 21 RSUExampleScenario.manager acceleration ETV
vector 22 RSUExampleScenario.manager co2emission ETV
vector 23 RSUExampleScenario.node[3].nic.phy80211p RadioState ETV
vector 24 RSUExampleScenario.node[3].nic.phy80211p RadioChannel ETV
vector 25 RSUExampleScenario.manager posx ETV
vector 26 RSUExampleScenario.manager posy ETV
vector 27 RSUExampleScenario.manager speed ETV
vector 28 RSUExampleScenario.manager acceleration ETV
vector 29 RSUExampleScenario.manager co2emission ETV
vector 30 RSUExampleScenario.node[4].nic.phy80211p RadioState ETV
vector 31 RSUExampleScenario.node[4].nic.phy80211p RadioChannel ETV
vector 32 RSUExampleScenario.manager posx ETV
vector 33 RSUExampleScenario.manager posy ETV
vector 34 RSUExampleScenario.manager speed ETV
vector 35 RSUExampleScenario.manager acceleration ETV
vector 36 RSUExampleScenario.manager co2emission ETV
vector 37 RSUExampleScenario.node[5].nic.phy80211p RadioState ETV
vector 38 RSUExampleScenario.node[5].nic.phy80211p RadioChannel ETV
vector 39 RSUExampleScenario.manager posx ETV
vector 40 RSUExampleScenario.manager posy ETV
vector 41 RSUExampleScenario.manager speed ETV
vector 42 RSUExampleScenario.manager acceleration ETV
vector 43 RSUExampleScenario.manager co2emission ETV
vector 44 RSUExampleScenario.node[6].nic.phy80211p RadioState ETV
vector 45 RSUExampleScenario.node[6].nic.phy80211p RadioChannel ETV
vector 46 RSUExampleScenario.manager posx ETV
vector 47 RSUExampleScenario.manager posy ETV
vector 48 RSUExampleScenario.manager speed ETV
vector 49 RSUExampleScenario.manager acceleration ETV
vector 50 RSUExampleScenario.manager co2emission ETV
vector 51 RSUExampleScenario.node[7].nic.phy80211p RadioState ETV
vector 52 RSUExampleScenario.node[7].nic.phy80211p RadioChannel ETV
vector 53 RSUExampleScenario.manager posx ETV
vector 54 RSUExampleScenario.manager posy ETV
vector 55 RSUExampleScenario.manager speed ETV
vector 56 RSUExampleScenario.manager acceleration ETV
vector 57 RSUExampleScenario.manager co2emission ETV
vector 58 RSUExampleScenario.node[8].nic.phy80211p RadioState ETV
vector 59 RSUExampleScenario.node[8].nic.phy80211p RadioChannel ETV
vector 60 RSUExampleScenario.manager posx ETV
vector 61 RSUExampleScenario.manager posy ETV
vector 62 RSUExampleScenario.manager speed ETV
vector 63 RSUExampleScenario.manager acceleration ETV
vector 64 RSUExampleScenario.manager co2emission ETV
vector 65 RSUExampleScenario.node[9].nic.phy80211p RadioState ETV
vector 66 RSUExampleScenario.node[9].nic.phy80211p RadioChannel ETV
vector 67 RSUExampleScenario.manager posx ETV
vector 68 RSUExampleScenario.manager posy ETV
vector 69 RSUExampleScenario.manager speed ETV
vector 70 RSUExampleScenario.manager acceleration ETV
vector 71 RSUExampleScenario.manager co2emission ETV
vector 72 RSUExampleScenario.node[10].nic.phy80211p RadioState ETV
vector 73 RSUExampleScenario.node[10].nic.phy80211p RadioChannel ETV
vector 74 RSUExampleScenario.manager posx ETV
vector 75 RSUExampleScenario.manager posy ETV
vector 76 RSUExampleScenario.manager speed ETV
vector 77 RSUExampleScenario.manager acceleration ETV
vector 78 RSUExampleScenario.manager co2emission ETV
vector 79 RSUExampleScenario.node[11].nic.phy80211p RadioState ETV
vector 80 RSUExampleScenario.node[11].nic.phy80211p RadioChannel ETV
vector 81 RSUExampleScenario.manager posx ETV
vector 82 RSUExampleScenario.manager posy ETV
vector 83 RSUExampleScenario.manager speed ETV
vector 84 RSUExampleScenario.manager acceleration ETV
vector 85 RSUExampleScenario.manager co2emission ETV
vector 86 RSUExampleScenario.node[12].nic.phy80211p RadioState ETV
vector 87 RSUExampleScenario.node[12].nic.phy80211p RadioChannel ETV
vector 88 RSUExampleScenario.manager posx ETV
vector 89 RSUExampleScenario.manager posy ETV
vector 90 RSUExampleScenario.manager speed ETV
vector 91 RSUExampleScenario.manager acceleration ETV
vector 92 RSUExampleScenario.manager co2emission ETV
vector 93 RSUExampleScenario.node[13].nic.phy80211p RadioState ETV
vector 94 RSUExampleScenario.node[13].nic.phy80211p RadioChannel ETV
vector 95 RSUExampleScenario.manager posx ETV
vector 96 RSUExampleScenario.manager posy ETV
vector 97 RSUExampleScenario.manager speed ETV
vector 98 RSUExampleScenario.manager acceleration ETV
vector 99 RSUExampleScenario.manager co2emission ETV
vector 100 RSUExampleScenario.node[14].nic.phy80211p RadioState ETV
vector 101 RSUExampleScenario.node[14].nic.phy80211p RadioChannel ETV
vector 102 RSUExampleScenario.manager posx ETV
vector 103 RSUExampleScenario.manager posy ETV
vector 104 RSUExampleScenario.manager speed ETV
vector 105 RSUExampleScenario.manager acceleration ETV
vector 106 RSUExampleScenario.manager co2emission ETV
vector 107 RSUExampleScenario.node[15].nic.phy80211p RadioState ETV
vector 108 RSUExampleScenario.node[15].nic.phy80211p RadioChannel ETV
vector 109 RSUExampleScenario.manager posx ETV
vector 110 RSUExampleScenario.manager posy ETV
vector 111 RSUExampleScenario.manager speed ETV
vector 112 RSUExampleScenario.manager acceleration ETV
vector 113 RSUExampleScenario.manager co2emission ETV
vector 114 RSUExampleScenario.node[16].nic.phy80211p RadioState ETV
vector 115 RSUExampleScenario.node[16].nic.phy80211p RadioChannel ETV
vector 116 RSUExampleScenario.manager posx ETV
vector 117 RSUExampleScenario.manager posy ETV
vector 118 RSUExampleScenario.manager speed ETV
vector 119 RSUExampleScenario.manager acceleration ETV
vector 120 RSUExampleScenario.manager co2emission ETV
vector 121 RSUExampleScenario.node[17].nic.phy80211p RadioState ETV
vector 122 RSUExampleScenario.node[17].nic.phy80211p RadioChannel ETV
vector 123 RSUExampleScenario.manager posx ETV
vector 124 RSUExampleScenario.manager posy ETV
vector 125 RSUExampleScenario.manager speed ETV
vector 126 RSUExampleScenario.manager acceleration ETV
vector 127 RSUExampleScenario.manager co2emission ETV
vector 128 RSUExampleScenario.node[18].nic.phy80211p RadioState ETV
vector 129 RSUExampleScenario.node[18].nic.phy80211p RadioChannel ETV
vector 130 RSUExampleScenario.manager posx ETV
vector 131 RSUExampleScenario.manager posy ETV
vector 132 RSUExampleScenario.manager speed ETV
vector 133 RSUExampleScenario.manager acceleration ETV
vector 134 RSUExampleScenario.manager co2emission ETV
vector 135 RSUExampleScenario.node[19].nic.phy80211p RadioState ETV
vector 136 RSUExampleScenario.node[19].nic.phy80211p RadioChannel ETV
vector 137 RSUExampleScenario.manager posx ETV
vector 138 RSUExampleScenario.manager posy ETV
vector 139 RSUExampleScenario.manager speed ETV
vector 140 RSUExampleScenario.manager acceleration ETV
vector 141 RSUExampleScenario.manager co2emission ETV
vector 142 RSUExampleScenario.node[20].nic.phy80211p RadioState ETV
vector 143 RSUExampleScenario.node[20].nic.phy80211p RadioChannel ETV
vector 144 RSUExampleScenario.manager posx ETV
vector 145 RSUExampleScenario.manager posy ETV
vector 146 RSUExampleScenario.manager speed ETV
vector 147 RSUExampleScenario.manager acceleration ETV
vector 148 RSUExampleScenario.manager co2emission ETV
vector 149 RSUExampleScenario.node[21].nic.phy80211p RadioState ETV
vector 150 RSUExampleScenario.node[21].nic.phy80211p RadioChannel ETV
vector 151 RSUExampleScenario.manager posx ETV
vector 152 RSUExampleScenario.manager posy ETV
vector 153 RSUExampleScenario.manager speed ETV
vector 154 RSUExampleScenario.manager acceleration ETV
vector 155 RSUExampleScenario.manager co2emission ETV
vector 156 RSUExampleScenario.node[22].nic.phy80211p RadioState ETV
vector 157 RSUExampleScenario.node[22].nic.phy80211p RadioChannel ETV
vector 158 RSUExampleScenario.manager posx ETV
vector 159 RSUExampleScenario.manager posy ETV
vector 160 RSUExampleScenario.manager speed ETV
vector 161 RSUExampleScenario.manager acceleration ETV
vector 162 RSUExampleScenario.manager co2emission ETV
vector 163 RSUExampleScenario.node[23].nic.phy80211p RadioState ETV
vector 164 RSUExampleScenario.node[23].nic.phy80211p RadioChannel ETV
vector 165 RSUExampleScenario.manager posx ETV
vector 166 RSUExampleScenario.manager posy ETV
vector 167 RSUExampleScenario.manager speed ETV
vector 168 RSUExampleScenario.manager acceleration ETV
vector 169 RSUExampleScenario.manager co2emission ETV
vector 170 RSUExampleScenario.node[24].nic.phy80211p RadioState ETV
vector 171 RSUExampleScenario.node[24].nic.phy80211p RadioChannel ETV
vector 172 RSUExampleScenario.manager posx ETV
vector 173 RSUExampleScenario.manager posy ETV
vector 174 RSUExampleScenario.manager speed ETV
vector 175 RSUExampleScenario.manager acceleration ETV
vector 176 RSUExampleScenario.manager co2emission ETV
vector 177 RSUExampleScenario.node[25].nic.phy80211p RadioState ETV
vector 178 RSUExampleScenario.node[25].nic.phy80211p RadioChannel ETV
vector 179 RSUExampleScenario.manager posx ETV
vector 180 RSUExampleScenario.manager posy ETV
vector 181 RSUExampleScenario.manager speed ETV
vector 182 RSUExampleScenario.manager acceleration ETV
vector 183 RSUExampleScenario.manager co2emission ETV
vector 184 RSUExampleScenario.node[26].nic.phy80211p RadioState ETV
vector 185 RSUExampleScenario.node[26].nic.phy80211p RadioChannel ETV
vector 186 RSUExampleScenario.manager posx ETV
vector 187 RSUExampleScenario.manager posy ETV
vector 188 RSUExampleScenario.manager speed ETV
vector 189 RSUExampleScenario.manager acceleration ETV
vector 190 RSUExampleScenario.manager co2emission ETV
vector 191 RSUExampleScenario.node[27].nic.phy80211p RadioState ETV
vector 192 RSUExampleScenario.node[27].nic.phy80211p RadioChannel ETV
vector 193 RSUExampleScenario.manager posx ETV
vector 194 RSUExampleScenario.manager posy ETV
vector 195 RSUExampleScenario.manager speed ETV
vector 196 RSUExampleScenario.manager acceleration ETV
vector 197 RSUExampleScenario.manager co2emission ETV
vector 198 RSUExampleScenario.node[28].nic.phy80211p RadioState ETV
vector 199 RSUExampleScenario.node[28].nic.phy80211p RadioChannel ETV
vector 200 RSUExampleScenario.manager posx ETV
vector 201 RSUExampleScenario.manager posy ETV
vector 202 RSUExampleScenario.manager speed ETV
vector 203 RSUExampleScenario.manager acceleration ETV
vector 204 RSUExampleScenario.manager co2emission ETV
vector 205 RSUExampleScenario.node[29].nic.phy80211p RadioState ETV
vector 206 RSUExampleScenario.node[29].nic.phy80211p RadioChannel ETV
vector 207 RSUExampleScenario.manager posx ETV
vector 208 RSUExampleScenario.manager posy ETV
vector 209 RSUExampleScenario.manager speed ETV
vector 210 RSUExampleScenario.manager acceleration ETV
vector 211 RSUExampleScenario.manager co2emission ETV
vector 212 RSUExampleScenario.node[30].nic.phy80211p RadioState ETV
vector 213 RSUExampleScenario.node[30].nic.phy80211p RadioChannel ETV
vector 214 RSUExampleScenario.manager posx ETV
vector 215 RSUExampleScenario.manager posy ETV
vector 216 RSUExampleScenario.manager speed ETV
vector 217 RSUExampleScenario.manager acceleration ETV
vector 218 RSUExampleScenario.manager co2emission ETV
vector 219 RSUExampleScenario.node[31].nic.phy80211p RadioState ETV
vector 220 RSUExampleScenario.node[31].nic.phy80211p RadioChannel ETV
vector 221 RSUExampleScenario.manager posx ETV
vector 222 RSUExampleScenario.manager posy ETV
vector 223 RSUExampleScenario.manager speed ETV
vector 224 RSUExampleScenario.manager acceleration ETV
vector 225 RSUExampleScenario.manager co2emission ETV
vector 226 RSUExampleScenario.node[32].nic.phy80211p RadioState ETV
vector 227 RSUExampleScenario.node[32].nic.phy80211p RadioChannel ETV
vector 228 RSUExampleScenario.manager posx ETV
vector 229 RSUExampleScenario.manager posy ETV
vector 230 RSUExampleScenario.manager speed ETV
vector 231 RSUExampleScenario.manager acceleration ETV
vector 232 RSUExampleScenario.manager co2emission ETV
vector 233 RSUExampleScenario.node[33].nic.phy80211p RadioState ETV
vector 234 RSUExampleScenario.node[33].nic.phy80211p RadioChannel ETV
vector 235 RSUExampleScenario.manager posx ETV
vector 236 RSUExampleScenario.manager posy ETV
vector 237 RSUExampleScenario.manager speed ETV
vector 238 RSUExampleScenario.manager acceleration ETV
vector 239 RSUExampleScenario.manager co2emission ETV
vector 240 RSUExampleScenario.node[34].nic.phy80211p RadioState ETV
vector 241 RSUExampleScenario.node[34].nic.phy80211p RadioChannel ETV
vector 242 RSUExampleScenario.manager posx ETV
vector 243 RSUExampleScenario.manager posy ETV
vector 244 RSUExampleScenario.manager speed ETV
vector 245 RSUExampleScenario.manager acceleration ETV
vector 246 RSUExampleScenario.manager co2emission ETV
vector 247 RSUExampleScenario.node[35].nic.phy80211p RadioState ETV
vector 248 RSUExampleScenario.node[35].nic.phy80211p RadioChannel ETV
vector 249 RSUExampleScenario.manager posx ETV
vector 250 RSUExampleScenario.manager posy ETV
vector 251 RSUExampleScenario.manager speed ETV
vector 252 RSUExampleScenario.manager acceleration ETV
vector 253 RSUExampleScenario.manager co2emission ETV
vector 254 RSUExampleScenario.node[36].nic.phy80211p RadioState ETV
vector 255 RSUExampleScenario.node[36].nic.phy80211p RadioChannel ETV
vector 256 RSUExampleScenario.manager posx ETV
vector 257 RSUExampleScenario.manager posy ETV
vector 258 RSUExampleScenario.manager speed ETV
vector 259 RSUExampleScenario.manager acceleration ETV
vector 260 RSUExampleScenario.manager co2emission ETV
vector 261 RSUExampleScenario.node[37].nic.phy80211p RadioState ETV
vector 262 RSUExampleScenario.node[37].nic.phy80211p RadioChannel ETV
vector 263 RSUExampleScenario.manager posx ETV
vector 264 RSUExampleScenario.manager posy ETV
vector 265 RSUExampleScenario.manager speed ETV
vector 266 RSUExampleScenario.manager acceleration ETV
vector 267 RSUExampleScenario.manager co2emission ETV
vector 268 RSUExampleScenario.node[38].nic.phy80211p RadioState ETV
vector 269 RSUExampleScenario.node[38].nic.phy80211p RadioChannel ETV
vector 270 RSUExampleScenario.manager posx ETV
vector 271 RSUExampleScenario.manager posy ETV
vector 272 RSUExampleScenario.manager speed ETV
vector 273 RSUExampleScenario.manager acceleration ETV
vector 274 RSUExampleScenario.manager co2emission ETV
vector 275 RSUExampleScenario.node[39].nic.phy80211p RadioState ETV
vector 276 RSUExampleScenario.node[39].nic.phy80211p RadioChannel ETV
vector 277 RSUExampleScenario.manager posx ETV
vector 278 RSUExampleScenario.manager posy ETV
vector 279 RSUExampleScenario.manager speed ETV
vector 280 RSUExampleScenario.manager acceleration ETV
vector 281 RSUExampleScenario.manager co2emission ETV
vector 282 RSUExampleScenario.node[40].nic.phy80211p RadioState ETV
vector 283 RSUExampleScenario.node[40].nic.phy80211p RadioChannel ETV
vector 284 RSUExampleScenario.manager posx ETV
vector 285 RSUExampleScenario.manager posy ETV
vector 286 RSUExampleScenario.manager speed ETV
vector 287 RSUExampleScenario.manager acceleration ETV
vector 288 RSUExampleScenario.manager co2emission ETV
vector 289 RSUExampleScenario.node[41].nic.phy80211p RadioState ETV
vector 290 RSUExampleScenario.node[41].nic.phy80211p RadioChannel ETV
vector 291 RSUExampleScenario.manager posx ETV
vector 292 RSUExampleScenario.manager posy ETV
vector 293 RSUExampleScenario.manager speed ETV
vector 294 RSUExampleScenario.manager acceleration ETV
vector 295 RSUExampleScenario.manager co2emission ETV
vector 296 RSUExampleScenario.node[42].nic.phy80211p RadioState ETV
vector 297 RSUExampleScenario.node[42].nic.phy80211p RadioChannel ETV
vector 298 RSUExampleScenario.manager posx ETV
vector 299 RSUExampleScenario.manager posy ETV
vector 300 RSUExampleScenario.manager speed ETV
vector 301 RSUExampleScenario.manager acceleration ETV
vector 302 RSUExampleScenario.manager co2emission ETV
vector 303 RSUExampleScenario.node[43].nic.phy80211p RadioState ETV
vector 304 RSUExampleScenario.node[43].nic.phy80211p RadioChannel ETV
vector 305 RSUExampleScenario.manager posx ETV
vector 306 RSUExampleScenario.manager posy ETV
vector 307 RSUExampleScenario.manager speed ETV
vector 308 RSUExampleScenario.manager acceleration ETV
vector 309 RSUExampleScenario.manager co2emission ETV
vector 310 RSUExampleScenario.node[44].nic.phy80211p RadioState ETV
vector 311 RSUExampleScenario.node[44].nic.phy80211p RadioChannel ETV
vector 312 RSUExampleScenario.manager posx ETV
vector 313 RSUExampleScenario.manager posy ETV
vector 314 RSUExampleScenario.manager speed ETV
vector 315 RSUExampleScenario.manager acceleration ETV
vector 316 RSUExampleScenario.manager co2emission ETV
vector 317 RSUExampleScenario.node[45].nic.phy80211p RadioState ETV
vector 318 RSUExampleScenario.node[45].nic.phy80211p RadioChannel ETV
vector 319 RSUExampleScenario.manager posx ETV
vector 320 RSUExampleScenario.manager posy ETV
vector 321 RSUExampleScenario.manager speed ETV
vector 322 RSUExampleScenario.manager acceleration ETV
vector 323 RSUExampleScenario.manager co2emission ETV
vector 324 RSUExampleScenario.node[46].nic.phy80211p RadioState ETV
vector 325 RSUExampleScenario.node[46].nic.phy80211p RadioChannel ETV
vector 326 RSUExampleScenario.manager posx ETV
vector 327 RSUExampleScenario.manager posy ETV
vector 328 RSUExampleScenario.manager speed ETV
vector 329 RSUExampleScenario.manager acceleration ETV
vector 330 RSUExampleScenario.manager co2emission ETV
vector 331 RSUExampleScenario.node[47].nic.phy80211p RadioState ETV
vector 332 RSUExampleScenario.node[47].nic.phy80211p RadioChannel ETV
vector 333 RSUExampleScenario.manager posx ETV
vector 334 RSUExampleScenario.manager posy ETV
vector 335 RSUExampleScenario.manager speed ETV
vector 336 RSUExampleScenario.manager acceleration ETV
vector 337 RSUExampleScenario.manager co2emission ETV
vector 338 RSUExampleScenario.node[48].nic.phy80211p RadioState ETV
vector 339 RSUExampleScenario.node[48].nic.phy80211p RadioChannel ETV
vector 340 RSUExampleScenario.manager posx ETV
vector 341 RSUExampleScenario.manager posy ETV
vector 342 RSUExampleScenario.manager speed ETV
vector 343 RSUExampleScenario.manager acceleration ETV
vector 344 RSUExampleScenario.manager co2emission ETV
vector 345 RSUExampleScenario.node[49].nic.phy80211p RadioState ETV
vector 346 RSUExampleScenario.node[49].nic.phy80211p RadioChannel ETV
vector 347 RSUExampleScenario.manager posx ETV
vector 348 RSUExampleScenario.manager posy ETV
vector 349 RSUExampleScenario.manager speed ETV
vector 350 RSUExampleScenario.manager acceleration ETV
vector 351 RSUExampleScenario.manager co2emission ETV
vector 352 RSUExampleScenario.node[50].nic.phy80211p RadioState ETV
vector 353 RSUExampleScenario.node[50].nic.phy80211p RadioChannel ETV
vector 354 RSUExampleScenario.manager posx ETV
vector 355 RSUExampleScenario.manager posy ETV
vector 356 RSUExampleScenario.manager speed ETV
vector 357 RSUExampleScenario.manager acceleration ETV
vector 358 RSUExampleScenario.manager co2emission ETV
vector 359 RSUExampleScenario.node[51].nic.phy80211p RadioState ETV
vector 360 RSUExampleScenario.node[51].nic.phy80211p RadioChannel ETV
vector 361 RSUExampleScenario.manager posx ETV
vector 362 RSUExampleScenario.manager posy ETV
vector 363 RSUExampleScenario.manager speed ETV
vector 364 RSUExampleScenario.manager acceleration ETV
vector 365 RSUExampleScenario.manager co2emission ETV
vector 366 RSUExampleScenario.node[52].nic.phy80211p RadioState ETV
vector 367 RSUExampleScenario.node[52].nic.phy80211p RadioChannel ETV
vector 368 RSUExampleScenario.manager posx ETV
vector 369 RSUExampleScenario.manager posy ETV
vector 370 RSUExampleScenario.manager speed ETV
vector 371 RSUExampleScenario.manager acceleration ETV
vector 372 RSUExampleScenario.manager co2emission ETV
vector 373 RSUExampleScenario.node[53].nic.phy80211p RadioState ETV
vector 374 RSUExampleScenario.node[53].nic.phy80211p RadioChannel ETV
vector 375 RSUExampleScenario.manager posx ETV
vector 376 RSUExampleScenario.manager posy ETV
vector 377 RSUExampleScenario.manager speed ETV
vector 378 RSUExampleScenario.manager acceleration ETV
vector 379 RSUExampleScenario.manager co2emission ETV
vector 380 RSUExampleScenario.node[54].nic.phy80211p RadioState ETV
vector 381 RSUExampleScenario.node[54].nic.phy80211p RadioChannel ETV
vector 382 RSUExampleScenario.manager posx ETV
vector 383 RSUExampleScenario.manager posy ETV
vector 384 RSUExampleScenario.manager speed ETV
vector 385 RSUExampleScenario.manager acceleration ETV
vector 386 RSUExampleScenario.manager co2emission ETV
vector 387 RSUExampleScenario.node[55].nic.phy80211p RadioState ETV
vector 388 RSUExampleScenario.node[55].nic.phy80211p RadioChannel ETV
vector 389 RSUExampleScenario.manager posx ETV
vector 390 RSUExampleScenario.manager posy ETV
vector 391 RSUExampleScenario.manager speed ETV
vector 392 RSUExampleScenario.manager acceleration ETV
vector 393 RSUExampleScenario.manager co2emission ETV
vector 394 RSUExampleScenario.node[56].nic.phy80211p RadioState ETV
vector 395 RSUExampleScenario.node[56].nic.phy80211p RadioChannel ETV
vector 396 RSUExampleScenario.manager posx ETV
vector 397 RSUExampleScenario.manager posy ETV
vector 398 RSUExampleScenario.manager speed ETV
vector 399 RSUExampleScenario.manager acceleration ETV
vector 400 RSUExampleScenario.manager co2emission ETV
vector 401 RSUExampleScenario.node[57].nic.phy80211p RadioState ETV
vector 402 RSUExampleScenario.node[57].nic.phy80211p RadioChannel ETV
vector 403 RSUExampleScenario.manager posx ETV
vector 404 RSUExampleScenario.manager posy ETV
vector 405 RSUExampleScenario.manager speed ETV
vector 406 RSUExampleScenario.manager acceleration ETV
vector 407 RSUExampleScenario.manager co2emission ETV
vector 408 RSUExampleScenario.node[58].nic.phy80211p RadioState ETV
vector 409 RSUExampleScenario.node[58].nic.phy80211p RadioChannel ETV
vector 410 RSUExampleScenario.manager posx ETV
vector 411 RSUExampleScenario.manager posy ETV
vector 412 RSUExampleScenario.manager speed ETV
vector 413 RSUExampleScenario.manager acceleration ETV
vector 414 RSUExampleScenario.manager co2emission ETV
vector 415 RSUExampleScenario.node[59].nic.phy80211p RadioState ETV
vector 416 RSUExampleScenario.node[59].nic.phy80211p RadioChannel ETV
vector 417 RSUExampleScenario.manager posx ETV
vector 418 RSUExampleScenario.manager posy ETV
vector 419 RSUExampleScenario.manager speed ETV
vector 420 RSUExampleScenario.manager acceleration ETV
vector 421 RSUExampleScenario.manager co2emission ETV
vector 422 RSUExampleScenario.node[60].nic.phy80211p RadioState ETV
vector 423 RSUExampleScenario.node[60].nic.phy80211p RadioChannel ETV
vector 424 RSUExampleScenario.manager posx ETV
vector 425 RSUExampleScenario.manager posy ETV
vector 426 RSUExampleScenario.manager speed ETV
vector 427 RSUExampleScenario.manager acceleration ETV
vector 428 RSUExampleScenario.manager co2emission ETV
vector 429 RSUExampleScenario.node[61].nic.phy80211p RadioState ETV
vector 430 RSUExampleScenario.node[61].nic.phy80211p RadioChannel ETV
vector 431 RSUExampleScenario.manager posx ETV
vector 432 RSUExampleScenario.manager posy ETV
vector 433 RSUExampleScenario.manager speed ETV
vector 434 RSUExampleScenario.manager acceleration ETV
vector 435 RSUExampleScenario.manager co2emission ETV
vector 436 RSUExampleScenario.node[62].nic.phy80211p RadioState ETV
vector 437 RSUExampleScenario.node[62].nic.phy80211p RadioChannel ETV
vector 438 RSUExampleScenario.manager posx ETV
vector 439 RSUExampleScenario.manager posy ETV
vector 440 RSUExampleScenario.manager speed ETV
vector 441 RSUExampleScenario.manager acceleration ETV
vector 442 RSUExampleScenario.manager co2emission ETV
vector 443 RSUExampleScenario.node[63].nic.phy80211p RadioState ETV
vector 444 RSUExampleScenario.node[63].nic.phy80211p RadioChannel ETV
vector 445 RSUExampleScenario.manager posx ETV
vector 446 RSUExampleScenario.manager posy ETV
vector 447 RSUExampleScenario.manager speed ETV
vector 448 RSUExampleScenario.manager acceleration ETV
vector 449 RSUExampleScenario.manager co2emission ETV
vector 450 RSUExampleScenario.node[64].nic.phy80211p RadioState ETV
vector 451 RSUExampleScenario.node[64].nic.phy80211p RadioChannel ETV
vector 452 RSUExampleScenario.manager posx ETV
vector 453 RSUExampleScenario.manager posy ETV
vector 454 RSUExampleScenario.manager speed ETV
vector 455 RSUExampleScenario.manager acceleration ETV
vector 456 RSUExampleScenario.manager co2emission ETV
vector 457 RSUExampleScenario.node[65].nic.phy80211p RadioState ETV
vector 458 RSUExampleScenario.node[65].nic.phy80211p RadioChannel ETV
vector 459 RSUExampleScenario.manager posx ETV
vector 460 RSUExampleScenario.manager posy ETV
vector 461 RSUExampleScenario.manager speed ETV
vector 462 RSUExampleScenario.manager acceleration ETV
vector 463 RSUExampleScenario.manager co2emission ETV
vector 464 RSUExampleScenario.node[66].nic.phy80211p RadioState ETV
vector 465 RSUExampleScenario.node[66].nic.phy80211p RadioChannel ETV
vector 466 RSUExampleScenario.manager posx ETV
vector 467 RSUExampleScenario.manager posy ETV
vector 468 RSUExampleScenario.manager speed ETV
4	2	1	2414.8476884116
4	3	2	2411.8243290941
4	4	3	2407.1592244543
4	5	4	2402.288200066
4	6	5	2396.1394374635
4	7	6	2388.6993875942
4	8	7	2379.889221533
4	9	8	2370.1207192459
4	10	9	2360.3141803208
4	11	10	2350.5099475634
4	12	11	2341.0010868867
4	13	12	2334.5620136983
4	14	13	2337.6803779466
4	15	14	2348.3497968862
4	16	15	2358.6961674725
4	17	16	2371.6616533546
4	18	17	2385.4706804305
4	19	18	2399.3588350668
4	20	19	2412.4541998667
4	21	20	2421.4418196582
4	22	21	2428.417609864
4	23	22	2431.468930052
4	24	23	2433.1513403206
4	25	24	2435.1237040944
4	26	25	2437.2173147583
4	27	26	2438.6437980286
4	28	27	2439.5074353185
4	29	28	2440.517813261
4	30	29	2441.5286354903
4	31	30	2442.5392864447
4	32	31	2443.5505626462
4	33	32	2444.5611125134
4	34	33	2445.5724211388
4	35	34	2446.5834693939
4	36	35	2447.5934051003
4	37	36	2448.6036931522
4	38	37	2449.6148620235
4	39	38	2450.6248001783
4	40	39	2449.5880553933
4	41	40	2448.4757357414
4	42	41	2447.3635385588
4	43	42	2446.250303259
4	44	43	2445.1365203297
4	45	44	2444.0235521834
4	46	45	2442.9111769209
4	47	46	2441.7982721732
4	48	47	2440.6856421625
4	49	48	2439.7151308154
4	50	49	2438.7725309408
4	51	50	2437.9056889905
4	52	51	2432.8785054281
4	53	52	2422.5273191113
4	54	53	2409.439604845
4	55	54	2395.517893619
4	56	55	2381.592286239
4	57	56	2367.6659531716
4	58	57	2353.7601239877
4	59	58	2339.8337569573
4	60	59	2325.9069679289
4	61	60	2311.9542202253
4	62	61	2298.0325140053
4	63	62	2284.0857072632
4	64	63	2270.1754193477
4	65	64	2256.2378749268
4	66	65	2242.3725172955
4	67	66	2228.5623045168
4	68	67	2214.8068758136
4	69	68	2201.6159272967
4	70	69	2188.41049514
4	71	70	2175.4595331684
4	72	71	2163.4460695032
4	73	72	2152.2029822947
4	74	73	2144.5427125699
4	76	74	2140.7603855053
4	77	75	2140.3234504706
4	78	76	2140.3234504706
4	79	77	2140.3234504706
4	80	78	2140.3234504706
4	81	79	2140.3234504706
4	82	80	2140.3234504706
4	83	81	2140.3234504706
4	84	82	2140.3234504706
4	85	83	2140.3234504706
4	86	84	2140.3234504706
4	203	85	2140.3234504706
4	204	86	2140.3234504706
4	2052	87	2140.3234504706
4	2053	88	2140.3234504706
4	5400	89	2140.3234504706
4	5401	90	2140.3234504706
4	6030	91	2140.3234504706
4	6031	92	2140.3234504706
4	6032	93	2140.3234504706
4	6033	94	2140.3234504706
4	6034	95	2140.3234504706
4	6035	96	2140.3234504706
4	6036	97	2140.3234504706
4	6037	98	2140.3234504706
4	6038	99	2140.3234504706
4	6039	100	2140.3234504706
4	6040	101	2140.3234504706
4	6041	102	2140.3234504706
4	6042	103	2140.3234504706
4	6044	104	2140.3234504706
4	6045	105	2140.3234504706
4	6046	106	2140.3234504706
4	6047	107	2140.3234504706
4	6048	108	2140.3234504706
4	6049	109	2140.3234504706
4	6050	110	2140.3234504706
4	6051	111	2140.3234504706
4	6052	112	2140.3234504706
4	6053	113	2140.3234504706
4	6054	114	2140.3234504706
4	6055	115	2140.3234504706
4	6056	116	2140.3234504706
4	6057	117	2140.3234504706
4	6058	118	2140.3234504706
4	6059	119	2140.3234504706
4	6060	120	2140.3234504706
4	6061	121	2140.3234504706
4	6062	122	2140.3234504706
4	6063	123	2140.3234504706
4	6065	124	2139.2991757134
4	6066	125	2136.740978117
4	6067	126	2133.0437330272
4	6068	127	2128.0124995244
4	6069	128	2121.6776393328
4	6070	129	2113.9053156064
4	6071	130	2104.7718132839
4	6072	131	2095.2426245916
4	6073	132	2085.7055441276
4	6074	133	2076.184415311
4	6076	134	2066.655969861
4	6077	135	2057.1336877497
4	6078	136	2047.5928952894
4	6079	137	2037.6052178263
4	6080	138	2027.631729265
4	6081	139	2017.6146613889
4	6082	140	2007.6105792237
4	6083	141	1997.6002182011
4	6084	142	1987.6009788642
4	6085	143	1977.6126411132
4	6086	144	1967.6241748743
4	6087	145	1957.6315686307
4	6088	146	1947.6459181812
4	6089	147	1937.6582154317
4	6090	148	1927.928336862
4	6091	149	1918.2020256331
4	6092	150	1908.4694342383
4	6093	151	1898.729315949
4	6094	152	1889.0051916379
4	6095	153	1879.261754136
4	6097	154	1869.5281309806
4	6098	155	1859.7936109763
4	6099	156	1850.060784751
4	6100	157	1840.3252135735
4	6101	158	1830.3508783798
4	6102	159	1820.2469987283
4	6103	160	1810.1380447441
4	6104	161	1800.1588395836
4	6105	162	1790.1967647249
4	6106	163	1780.2514425659
4	6108	164	1770.2963918832
4	6109	165	1760.3474435109
4	6110	166	1750.3920021198
4	6111	167	1740.4321024349
4	6112	168	1730.4736489538
4	6113	169	1720.5248935258
4	6114	170	1710.5761599386
4	6115	171	1700.6158889014
4	6116	172	1690.6676647231
4	6117	173	1680.7271906608
4	6118	174	1670.7628719405
4	6339	175	1660.8197170426
4	6340	176	1650.8730225366
4	9309	177	1640.9069306322
4	9310	178	1630.9622310679
4	14451	179	1621.0131410429
4	14452	180	1611.2234621063
4	15436	181	1601.4105973039
4	15437	182	1591.5875026872
4	15913	183	1581.773858707
4	15915	184	1571.9569451315
4	15916	185	1562.134478421
4	15917	186	1551.7112002999
4	15918	187	1541.175700404
4	15919	188	1530.6188701534
4	15920	189	1520.0613357038
4	15921	190	1509.5105544658
4	15922	191	1498.4885757907
4	15923	192	1487.0678394384
4	15924	193	1475.6648106688
4	15926	194	1464.2628301153
4	15927	195	1452.8377002759
4	15928	196	1440.6556722911
4	15929	197	1428.0474191858
4	15930	198	1415.4089725766
4	15931	199	1402.7771531333
4	15932	200	1389.5143186213
5	2	1	1578.4613427464
5	3	2	1579.5715045081
5	4	3	1581.5561876604
5	5	4	1586.4898643075
5	6	5	1592.7177137369
5	7	6	1600.2534592729
5	8	7	1609.1769437566
5	9	8	1619.0710908128
5	10	9	1629.0037637418
5	11	10	1638.9341008412
5	12	11	1649.1129276818
5	13	12	1661.0453354148
5	14	13	1673.5713017788
5	15	14	1682.4825292248
5	16	15	1691.8131453674
5	17	16	1695.5671389326
5	18	17	1697.3762977775
5	19	18	1698.7149431584
5	20	19	1699.9531973498
5	21	20	1700.8030368192
5	22	21	1701.4822415169
5	23	22	1709.488976148
5	24	23	1720.5600911779
5	25	24	1733.5392477075
5	26	25	1747.3162704222
5	27	26	1761.1584832035
5	28	27	1775.0702432813
5	29	28	1788.9649324082
5	30	29	1802.8657313576
5	31	30	1816.7641749373
5	32	31	1830.6712168986
5	33	32	1844.5682703312
5	34	33	1858.4757581847
5	35	34	1872.3796654344
5	36	35	1886.2682729438
5	37	36	1900.1617258992
5	38	37	1914.0672918586
5	39	38	1927.95593304
5	40	39	1941.8192613758
5	41	40	1955.7024557721
5	42	41	1969.5841215905
5	43	42	1983.4787444612
5	44	43	1997.3802024601
5	45	44	2011.2714909082
5	46	45	2025.1553793969
5	47	46	2039.0458765477
5	48	47	2052.9329446238
5	49	48	2066.8462265795
5	50	49	2080.7728807703
5	51	50	2094.6498483503
5	52	51	2107.3969092406
5	53	52	2116.410831539
5	54	53	2120.9360540062
5	55	54	2120.5048353085
5	56	55	2120.0344859883
5	57	56	2119.5641121576
5	58	57	2119.0944308629
5	59	58	2118.6240558857
5	60	59	2118.1536666537
5	61	60	2117.6824006466
5	62	61	2117.2121830918
5	63	62	2116.7411177447
5	64	63	2116.2712858524
5	65	64	2115.8005333487
5	66	65	2114.7955725584
5	67	66	2112.8371776454
5	68	67	2110.6451732265
5	69	68	2106.1714176713
5	70	69	2101.6927499389
5	71	70	2096.6090699211
5	72	71	2089.5369335469
5	73	72	2082.9183056299
5	74	73	2078.4088257942
5	76	74	2076.1822295729
5	77	75	2075.9250128167
5	78	76	2075.9250128167
5	79	77	2075.9250128167
5	80	78	2075.9250128167
5	81	79	2075.9250128167
5	82	80	2075.9250128167
5	83	81	2075.9250128167
5	84	82	2075.9250128167
5	85	83	2075.9250128167
5	86	84	2075.9250128167
5	203	85	2075.9250128167
5	204	86	2075.9250128167
5	2052	87	2075.9250128167
5	2053	88	2075.9250128167
5	5400	89	2075.9250128167
5	5401	90	2075.9250128167
5	6030	91	2075.9250128167
5	6031	92	2075.9250128167
5	6032	93	2075.9250128167
5	6033	94	2075.9250128167
5	6034	95	2075.9250128167
5	6035	96	2075.9250128167
5	6036	97	2075.9250128167
5	6037	98	2075.9250128167
5	6038	99	2075.9250128167
5	6039	100	2075.9250128167
5	6040	101	2075.9250128167
5	6041	102	2075.9250128167
5	6042	103	2075.9250128167
5	6044	104	2075.9250128167
5	6045	105	2075.9250128167
5	6046	106	2075.9250128167
5	6047	107	2075.9250128167
5	6048	108	2075.9250128167
5	6049	109	2075.9250128167
5	6050	110	2075.9250128167
5	6051	111	2075.9250128167
5	6052	112	2075.9250128167
5	6053	113	2075.9250128167
5	6054	114	2075.9250128167
5	6055	115	2075.9250128167
5	6056	116	2075.9250128167
5	6057	117	2075.9250128167
5	6058	118	2075.9250128167
5	6059	119	2075.9250128167
5	6060	120	2075.9250128167
5	6061	121	2075.9250128167
5	6062	122	2075.9250128167
5	6063	123	2075.9250128167
5	6065	124	2075.1267298609
5	6066	125	2072.866368236
5	6067	126	2068.9195549712
5	6068	127	2063.5487075839
5	6069	128	2056.7862372501
5	6070	129	2048.4892729856
5	6071	130	2038.7392490497
5	6072	131	2028.5668294709
5	6073	132	2018.3859854173
5	6074	133	2008.2221697653
5	6076	134	1998.0505435988
5	6077	135	1987.8854968026
5	6078	136	1977.7462070258
5	6079	137	1968.037196531
5	6080	138	1958.3419790519
5	6081	139	1948.6043981677
5	6082	140	1938.8794406792
5	6083	141	1929.1483795205
5	6084	142	1919.4281297401
5	6085	143	1909.7184773795
5	6086	144	1900.0087001156
5	6087	145	1890.2948983582
5	6088	146	1880.5878583211
5	6089	147	1870.8776764767
5	6090	148	1860.9070784971
5	6091	149	1850.9401361141
5	6092	150	1840.9667581934
5	6093	151	1830.9856671607
5	6094	152	1821.0209658006
5	6095	153	1811.0364734372
5	6097	154	1801.0620382298
5	6098	155	1791.0866839848
5	6099	156	1781.1130654234
5	6100	157	1771.1366339987
5	6101	158	1761.3864351111
5	6102	159	1751.7903250856
5	6103	160	1742.1893957369
5	6104	161	1732.4389499296
5	6105	162	1722.675991795
5	6106	163	1712.9294515159
5	6108	164	1703.1733771618
5	6109	165	1693.4232831486
5	6110	166	1683.6668258961
5	6111	167	1673.9059994593
5	6112	168	1664.1465903204
5	6113	169	1654.3966853945
5	6114	170	1644.6468018731
5	6115	171	1634.8856115062
5	6116	172	1625.1362272119
5	6117	173	1615.3944381289
5	6118	174	1605.6292809825
5	6339	175	1595.884864646
5	6340	176	1586.1369794505
5	9309	177	1576.3700845605
5	9310	178	1566.6241544327
5	14451	179	1556.8739215974
5	14452	180	1547.1035578614
5	15436	181	1537.1979243793
5	15437	182	1527.2819643728
5	15913	183	1517.3755443469
5	15915	184	1507.4658238152
5	15916	185	1497.5504976502
5	15917	186	1488.2895413144
5	15918	187	1479.1762772417
5	15919	188	1470.0445622969
5	15920	189	1460.912238217
5	15921	190	1451.7857557014
5	15922	191	1443.2408685256
5	15923	192	1435.1924371999
5	15924	193	1427.1564847762
5	15926	194	1419.1212710524
5	15927	195	1411.0697435439
5	15928	196	1404.3437243653
5	15929	197	1398.3994412022
5	15930	198	1392.4409230193
5	15931	199	1386.4855292775
5	15932	200	1382.138503409
6	3	2	4.1061966058897
6	4	3	6.0195495591482
6	5	4	7.7148368984793
6	6	5	9.5879868385225
6	7	6	11.391389363371
6	8	7	13.513839789145
6	9	8	13.99235115225
6	10	9	13.890224446259
6	11	10	13.976677174468
6	12	11	13.994826577434
6	13	12	13.923680325528
6	14	13	13.923542996629
6	15	14	13.91007151508
6	16	15	13.964598868005
6	17	16	13.995233640105
6	18	17	13.952304350403
6	19	18	13.956911946491
6	20	19	11.503494614513
6	21	20	7.0034946145128
6	22	21	7.8970062485022
6	23	22	10.10483181514
6	24	23	11.990706169653
6	25	24	13.981089308816
6	26	25	13.965594365916
6	27	26	13.989059597438
6	28	27	13.956378436291
6	29	28	13.910982951869
6	30	29	13.88918493646
6	31	30	13.908189346099
6	32	31	13.983992603337
6	33	32	13.971500478752
6	34	33	13.873081948087
6	35	34	13.985133641064
6	36	35	13.886848415199
6	37	36	13.876205747321
6	38	37	13.967912819823
6	39	38	13.871047234884
6	40	39	13.89239756926
6	41	40	13.872267716837
6	42	41	13.999815066161
6	43	42	13.964707984752
6	44	43	13.906584702837
6	45	44	13.922364303169
6	46	45	13.929034490574
6	47	46	13.93922677479
6	48	47	13.924399639922
6	49	48	13.96850544848
6	50	49	13.986686690277
6	51	50	13.935194088209
6	52	51	13.930097484484
6	53	52	13.948393711536
6	54	53	13.882971800906
6	55	54	13.87138918183
6	56	55	13.933780807857
6	57	56	13.942265776542
6	58	57	13.95140511482
6	59	58	13.886548467774
6	60	59	13.920721456567
6	61	60	13.906796863726
6	62	61	13.917803910668
6	63	62	13.924582225601
6	64	63	13.959688465288
6	65	64	13.957318032989
6	66	65	13.940553226951
6	67	66	13.879855337965
6	68	67	13.977758804618
6	69	68	13.914176650653
6	70	69	13.928041475909
6	71	70	13.977535404016
6	72	71	13.928572678084
6	73	72	11.364046791626
6	74	73	6.8640467916256
6	76	74	2.3640467916256
6	77	75	0
6	78	76	0
6	79	77	0
6	80	78	0
6	81	79	0
6	82	80	0
6	83	81	0
6	84	82	0
6	85	83	0
6	86	84	0
6	203	85	0
6	204	86	0
6	2052	87	0
6	2053	88	0
6	5400	89	0
6	5401	90	0
6	6030	91	0
6	6031	92	0
6	6032	93	0
6	6033	94	0
6	6034	95	0
6	6035	96	0
6	6036	97	0
6	6037	98	0
6	6038	99	0
6	6039	100	0
6	6040	101	0
6	6041	102	0
6	6042	103	0
6	6044	104	0
6	6045	105	0
6	6046	106	0
6	6047	107	0
6	6048	108	0
6	6049	109	0
6	6050	110	0
6	6051	111	0
6	6052	112	0
6	6053	113	0
6	6054	114	0
6	6055	115	0
6	6056	116	0
6	6057	117	0
6	6058	118	0
6	6059	119	0
6	6060	120	0
6	6061	121	0
6	6062	122	0
6	6063	123	0
6	6065	124	2.2219942613752
6	6066	125	4.3816652589273
6	6067	126	6.271098397682
6	6068	127	8.1846742143464
6	6069	128	10.238758130733
6	6070	129	12.368734642219
6	6071	130	13.962109271805
6	6072	131	13.914205637665
6	6073	132	13.944517719341
6	6074	133	13.932432430719
6	6076	134	13.953789253703
6	6077	135	13.898576378347
6	6078	136	13.923362842468
6	6079	137	13.87346287617
6	6080	138	13.915164393331
6	6081	139	13.962726174931
6	6082	140	13.991457488488
6	6083	141	13.93669091891
6	6084	142	13.946966261289
6	6085	143	13.874023362922
6	6086	144	13.888220233922
6	6087	145	13.910431938935
6	6088	146	13.915207219925
6	6089	147	13.934733790359
6	6090	148	13.947823643878
6	6091	149	13.938765405121
6	6092	150	13.884018056742
6	6093	151	13.98566509519
6	6094	152	13.928810386665
6	6095	153	13.878287675793
6	6097	154	13.960782518599
6	6098	155	13.994947284004
6	6099	156	13.975011026422
6	6100	157	13.946519697749
6	6101	158	13.954196195363
6	6102	159	13.908575135735
6	6103	160	13.893555851928
6	6104	161	13.925646835428
6	6105	162	13.956856088985
6	6106	163	13.935565363681
6	6108	164	13.981824356054
6	6109	165	13.960839076294
6	6110	166	13.963425049901
6	6111	167	13.944366896641
6	6112	168	13.993980701885
6	6113	169	13.936356577491
6	6114	170	13.904627814977
6	6115	171	13.901456429872
6	6116	172	13.877600607274
6	6117	173	13.896702704621
6	6118	174	13.881392423632
6	6339	175	13.958875037138
6	6340	176	13.945687377716
6	9309	177	13.966000350199
6	9310	178	13.970536190735
6	14451	179	13.916551416086
6	14452	180	13.93610556707
6	15436	181	13.939164152481
6	15437	182	13.944239728614
6	15913	183	13.908562719475
6	15915	184	13.872485791091
6	15916	185	13.99865511379
6	15917	186	13.92553616784
6	15918	187	13.916018098511
6	15919	188	13.981679034531
6	15920	189	13.988185767711
6	15921	190	13.923184596703
6	15922	191	13.883733638397
6	15923	192	13.892227361612
6	15924	193	13.876141575957
6	15926	194	13.950034722143
6	15927	195	13.883154610386
6	15928	196	13.946562061303
6	15929	197	13.880639836157
6	15930	198	13.967846674775
6	15931	199	13.891077681468
6	15932	200	13.880399412508
7	4	3	1.9133529532584
7	5	4	1.6952873393311
7	6	5	1.8731499400432
7	7	6	1.8034025248489
7	8	7	2.1224504257739
7	9	8	0.47851136310433
7	10	9	-0.1021267059911
7	11	10	0.086452728209551
7	12	11	0.018149402965792
7	13	12	-0.071146251906175
7	14	13	-0.0001373288989992
7	15	14	-0.013471481548622
7	16	15	0.054527352924923
7	17	16	0.03063477210002
7	18	17	-0.04292928970186
7	19	18	0.0046075960877356
7	20	19	-2.4534173319781
7	21	20	-4.5
7	22	21	0.8935116339894
7	23	22	2.2078255666373
7	24	23	1.8858743545134
7	25	24	1.9903831391631
7	26	25	-0.01549494290026
7	27	26	0.023465231521987
7	28	27	-0.032681161146611
7	29	28	-0.045395484422334
7	30	29	-0.021798015409148
7	31	30	0.019004409639164
7	32	31	0.075803257238585
7	33	32	-0.012492124584968
7	34	33	-0.098418530665803
7	35	34	0.11205169297755
7	36	35	-0.098285225864965
7	37	36	-0.01064266787842
7	38	37	0.091707072502468
7	39	38	-0.096865584938786
7	40	39	0.021350334375166
7	41	40	-0.020129852422979
7	42	41	0.12754734932445
7	43	42	-0.035107081409079
7	44	43	-0.058123281914741
7	45	44	0.015779600332026
7	46	45	0.0066701874043797
7	47	46	0.010192284216172
7	48	47	-0.014827134867664
7	49	48	0.044105808557942
7	50	49	0.018181241797283
7	51	50	-0.051492602068466
7	52	51	-0.0050966037251055
7	53	52	0.018296227052343
7	54	53	-0.065421910630539
7	55	54	-0.011582619075197
7	56	55	0.062391626026946
7	57	56	0.0084849686850799
7	58	57	0.0091393382777465
7	59	58	-0.064856647045817
7	60	59	0.034172988792415
7	61	60	-0.013924592840485
7	62	61	0.011007046941668
7	63	62	0.0067783149331806
7	64	63	0.035106239686721
7	65	64	-0.0023704322986315
7	66	65	-0.016764806038699
7	67	66	-0.060697888985743
7	68	67	0.097903466653079
7	69	68	-0.063582153965253
7	70	69	0.013864825256169
7	71	70	0.049493928106967
7	72	71	-0.048962725931778
7	73	72	-2.5645258864584
7	74	73	-4.5
7	76	74	-4.5
7	77	75	-2.3640467916256
7	78	76	0
7	79	77	0
7	80	78	0
7	81	79	0
7	82	80	0
7	83	81	0
7	84	82	0
7	85	83	0
7	86	84	0
7	203	85	0
7	204	86	0
7	2052	87	0
7	2053	88	0
7	5400	89	0
7	5401	90	0
7	6030	91	0
7	6031	92	0
7	6032	93	0
7	6033	94	0
7	6034	95	0
7	6035	96	0
7	6036	97	0
7	6037	98	0
7	6038	99	0
7	6039	100	0
7	6040	101	0
7	6041	102	0
7	6042	103	0
7	6044	104	0
7	6045	105	0
7	6046	106	0
7	6047	107	0
7	6048	108	0
7	6049	109	0
7	6050	110	0
7	6051	111	0
7	6052	112	0
7	6053	113	0
7	6054	114	0
7	6055	115	0
7	6056	116	0
7	6057	117	0
7	6058	118	0
7	6059	119	0
7	6060	120	0
7	6061	121	0
7	6062	122	0
7	6063	123	0
7	6065	124	2.2219942613752
7	6066	125	2.1596709975521
7	6067	126	1.8894331387547
7	6068	127	1.9135758166644
7	6069	128	2.0540839163866
7	6070	129	2.1299765114859
7	6071	130	1.593374629586
7	6072	131	-0.047903634139804
7	6073	132	0.030312081675511
7	6074	133	-0.012085288621019
7	6076	134	0.021356822983362
7	6077	135	-0.055212875355501
7	6078	136	0.024786464120261
7	6079	137	-0.049899966297671
7	6080	138	0.041701517160982
7	6081	139	0.047561781599653
7	6082	140	0.028731313557364
7	6083	141	-0.054766569577623
7	6084	142	0.0102753423783
7	6085	143	-0.0729428983666
7	6086	144	0.014196870999875
7	6087	145	0.022211705013179
7	6088	146	0.0047752809897066
7	6089	147	0.019526570434682
7	6090	148	0.013089853518178
7	6091	149	-0.0090582387568432
7	6092	150	-0.054747348378879
7	6093	151	0.10164703844814
7	6094	152	-0.056854708525352
7	6095	153	-0.050522710871883
7	6097	154	0.082494842805898
7	6098	155	0.034164765405004
7	6099	156	-0.019936257582158
7	6100	157	-0.028491328672972
7	6101	158	0.0076764976140122
7	6102	159	-0.045621059627738
7	6103	160	-0.015019283806906
7	6104	161	0.032090983500238
7	6105	162	0.031209253557027
7	6106	163	-0.021290725304279
7	6108	164	0.046258992373478
7	6109	165	-0.020985279760788
7	6110	166	0.0025859736069105
7	6111	167	-0.019058153259103
7	6112	168	0.049613805243279
7	6113	169	-0.057624124393332
7	6114	170	-0.031728762513959
7	6115	171	-0.0031713851052331
7	6116	172	-0.023855822598561
7	6117	173	0.019102097346913
7	6118	174	-0.015310280988924
7	6339	175	0.077482613506726
7	6340	176	-0.013187659422401
7	9309	177	0.020312972483225
7	9310	178	0.0045358405355369
7	14451	179	-0.053984774649143
7	14452	180	0.019554150984622
7	15436	181	0.0030585854104732
7	15437	182	0.0050755761330947
7	15913	183	-0.035677009138745
7	15915	184	-0.036076928384137
7	15916	185	0.12616932269884
7	15917	186	-0.073118945949245
7	15918	187	-0.0095180693292054
7	15919	188	0.065660936019849
7	15920	189	0.0065067331795579
7	15921	190	-0.065001171007752
7	15922	191	-0.03945095830597
7	15923	192	0.0084937232150697
7	15924	193	-0.016085785655305
7	15926	194	0.073893146186601
7	15927	195	-0.0668801117572
7	15928	196	0.063407450916712
7	15929	197	-0.065922225145624
7	15930	198	0.087206838617567
7	15931	199	-0.076768993306905
7	15932	200	-0.010678268959746
8	4	3	4.1962556146115
8	5	4	4.6765885426193
8	6	5	5.9822455727343
8	7	6	6.7469998477461
8	8	7	8.9023657158011
8	9	8	3.651678681686
8	10	9	1.6857621818206
8	11	10	2.3276633668785
8	12	11	2.0995306276608
8	13	12	1.7923040941768
8	14	13	2.0305681317735
8	15	14	1.9844951865828
8	16	15	2.2187318873595
8	17	16	2.1416854339172
8	18	17	1.8896148890835
8	19	18	2.0499339673421
8	20	19	0.973
8	21	20	0.973
8	22	21	3.236958348016
8	23	22	7.0694109561587
8	24	23	7.2974163894139
8	25	24	8.7433911631671
8	26	25	1.9831721788576
8	27	26	2.116835898497
8	28	27	1.9244585801898
8	29	28	1.8775583559564
8	30	29	1.9545657515643
8	31	30	2.0931646705581
8	32	31	2.2926746988581
8	33	32	1.993865292131
8	34	33	1.6968396252803
8	35	34	2.4149847823944
8	36	35	1.6983583398882
8	37	36	1.9906198998388
8	38	37	2.3442713071536
8	39	38	1.7018725964397
8	40	39	2.0993392475273
8	41	40	1.9585122345881
8	42	41	2.4691677522194
8	43	42	1.9170802753567
8	44	43	1.8345014514108
8	45	44	2.0838538984303
8	46	45	2.0539801513469
8	47	46	2.0668686152862
8	48	47	1.9813596940184
8	49	48	2.1840996762636
8	50	49	2.0987681125428
8	51	50	1.8592856847688
8	52	51	2.0145873760113
8	53	52	2.0950692067684
8	54	53	1.8080099866508
8	55	54	1.9870007069688
8	56	55	2.2415869227426
8	57	56	2.0614496349521
8	58	57	2.0646020593826
8	59	58	1.8102089718445
8	60	59	2.1453880261281
8	61	60	1.9826536733129
8	62	61	2.0673636130683
8	63	62	2.0538817544551
8	64	63	2.1528270365066
8	65	64	2.0265038417738
8	66	65	1.9764402783138
8	67	66	1.823544423566
8	68	67	2.3663700564531
8	69	68	1.816863137639
8	70	69	2.0780272006119
8	71	70	2.2032702170206
8	72	71	1.8671845150559
8	73	72	0.973
8	74	73	0.973
8	76	74	0.973
8	77	75	0.973
8	78	76	0.973
8	79	77	0.973
8	80	78	0.973
8	81	79	0.973
8	82	80	0.973
8	83	81	0.973
8	84	82	0.973
8	85	83	0.973
8	86	84	0.973
8	203	85	0.973
8	204	86	0.973
8	2052	87	0.973
8	2053	88	0.973
8	5400	89	0.973
8	5401	90	0.973
8	6030	91	0.973
8	6031	92	0.973
8	6032	93	0.973
8	6033	94	0.973
8	6034	95	0.973
8	6035	96	0.973
8	6036	97	0.973
8	6037	98	0.973
8	6038	99	0.973
8	6039	100	0.973
8	6040	101	0.973
8	6041	102	0.973
8	6042	103	0.973
8	6044	104	0.973
8	6045	105	0.973
8	6046	106	0.973
8	6047	107	0.973
8	6048	108	0.973
8	6049	109	0.973
8	6050	110	0.973
8	6051	111	0.973
8	6052	112	0.973
8	6053	113	0.973
8	6054	114	0.973
8	6055	115	0.973
8	6056	116	0.973
8	6057	117	0.973
8	6058	118	0.973
8	6059	119	0.973
8	6060	120	0.973
8	6061	121	0.973
8	6062	122	0.973
8	6063	123	0.973
8	6065	124	2.4080817491368
8	6066	125	3.6097150181135
8	6067	126	4.2908662920557
8	6068	127	5.3300190940896
8	6069	128	6.7716083595646
8	6070	129	8.2306431470796
8	6071	130	7.3964630212997
8	6072	131	1.8694407969886
8	6073	132	2.1350370330868
8	6074	133	1.9913567143412
8	6076	134	2.1059366793651
8	6077	135	1.8435469109796
8	6078	136	2.1141823143441
8	6079	137	1.8590913255925
8	6080	138	2.1700231934041
8	6081	139	2.1950764783891
8	6082	140	2.1348521217125
8	6083	141	1.848423466467
8	6084	142	2.0679571445659
8	6085	143	1.7820942605596
8	6086	144	2.0749497938408
8	6087	145	2.1041555485124
8	6088	146	2.0461934569666
8	6089	147	2.0977460374518
8	6090	148	2.0775076200446
8	6091	149	2.0021532082224
8	6092	150	1.8438174528787
8	6093	151	2.3799842198344
8	6094	152	1.8407138090759
8	6095	153	1.8574406286347
8	6097	154	2.3123894181885
8	6098	155	2.1535598612525
8	6099	156	1.9691423592976
8	6100	157	1.9376113298153
8	6101	158	2.0599739597323
8	6102	159	1.8765833152484
8	6103	160	1.9776849407054
8	6104	161	2.1389434248576
8	6105	162	2.1394055920097
8	6106	163	1.9607511040502
8	6108	164	2.1928600666225
8	6109	165	1.9642310153012
8	6110	166	2.0438040308735
8	6111	167	1.9691072905981
8	6112	168	2.2055554619791
8	6113	169	1.8387961934292
8	6114	170	1.922778033881
8	6115	171	2.0181537909243
8	6116	172	1.9465666317606
8	6117	173	2.0922698365702
8	6118	174	1.9755185732893
8	6339	175	2.2952948749659
8	6340	176	1.9889662956578
8	9309	177	2.1037346918995
8	9310	178	2.0511009581671
8	14451	179	1.8492572903835
8	14452	180	2.0979851268675
8	15436	181	2.0428975590011
8	15437	182	2.0501977758109
8	15913	183	1.9099142825738
8	15915	184	1.9052179611855
8	15916	185	2.4643641249373
8	15917	186	1.7858410554177
8	15918	187	1.9983405517558
8	15919	188	2.2582200545228
8	15920	189	2.0595717264255
8	15921	190	1.8128817885198
8	15922	191	1.8949737034561
8	15923	192	2.0562767784855
8	15924	193	1.9724109415159
8	15926	194	2.2821586246632
8	15927	195	1.8031467798411
8	15928	196	2.2464983260742
8	15929	197	1.8061360510748
8	15930	198	2.3291141609331
8	15931	199	1.7707192427041
8	15932	200	1.9909162058012
11	5	4	2414.8767583254
11	6	5	2411.8725636174
11	7	6	2407.2970525089
11	8	7	2402.4626210862
11	9	8	2396.3056860371
11	10	9	2388.8743536096
11	11	10	2380.097228827
11	12	11	2370.3507264333
11	13	12	2360.5878487076
11	14	13	2350.7849318213
11	15	14	2341.2418729237
11	16	15	2334.6305580324
11	17	16	2337.3467480277
11	18	17	2348.0519014368
11	19	18	2358.3998493504
11	20	19	2371.2788021446
11	21	20	2385.0887639745
11	22	21	2398.4985461925
11	23	22	2411.2485283293
11	24	23	2420.6905829484
11	25	24	2427.6440450998
11	26	25	2431.3031180431
11	27	26	2432.9057471878
11	28	27	2434.8184996871
11	29	28	2436.9106889558
11	30	29	2438.5031214217
11	31	30	2439.359314087
11	32	31	2440.3695716034
11	33	32	2441.3815056744
11	34	33	2442.392207776
11	35	34	2443.4019859718
11	36	35	2444.4122552489
11	37	36	2445.4251439738
11	38	37	2446.4367595227
11	39	38	2447.4467230743
11	40	39	2448.4574488286
11	41	40	2449.467800329
11	42	41	2450.4780716181
11	43	42	2449.7461704329
11	44	43	2448.6331060936
11	45	44	2447.5209445587
11	46	45	2446.407523851
11	47	46	2445.2946584851
11	48	47	2444.1824360332
11	49	48	2443.0706190476
11	50	49	2441.9568028547
11	51	50	2440.8451110823
11	52	51	2439.8503503047
11	53	52	2438.9091742415
11	54	53	2438.2310626655
11	55	54	2433.9050446447
11	56	55	2424.21615465
11	57	56	2411.3460908785
11	58	57	2397.4706148925
11	59	58	2383.5587488873
11	60	59	2369.633660475
11	61	60	2355.7048479554
11	62	61	2341.7904321874
11	63	62	2327.8638711022
11	64	63	2313.9188814831
11	65	64	2299.9979078089
11	66	65	2286.0826278217
11	67	66	2272.1469357561
11	68	67	2258.2076214411
11	69	68	2244.3155730069
11	70	69	2230.5273849192
11	71	70	2216.7446519198
11	72	71	2203.5167182724
11	73	72	2190.3178840362
11	74	73	2177.2322881214
11	76	74	2166.0575198019
11	77	75	2157.6433227622
11	78	76	2151.7978679298
11	79	77	2148.12850579
11	80	78	2146.1504391922
11	81	79	2145.2176430746
11	82	80	2144.8457426265
11	83	81	2144.7095674569
11	84	82	2144.6606226763
11	85	83	2144.6429435182
11	86	84	2144.6366379777
11	203	85	2144.6343920679
11	204	86	2144.6335903119
11	2052	87	2144.6333007435
11	2053	88	2144.633195825
11	5400	89	2144.6331583896
11	5401	90	2144.633145728
11	6030	91	2144.633145728
11	6031	92	2144.633145728
11	6032	93	2144.633145728
11	6033	94	2144.633145728
11	6034	95	2144.633145728
11	6035	96	2144.633145728
11	6036	97	2144.633145728
11	6037	98	2144.633145728
11	6038	99	2144.633145728
11	6039	100	2144.633145728
11	6040	101	2144.633145728
11	6041	102	2144.633145728
11	6042	103	2144.633145728
11	6044	104	2144.633145728
11	6045	105	2144.633145728
11	6046	106	2144.633145728
11	6047	107	2144.633145728
11	6048	108	2144.633145728
11	6049	109	2144.633145728
11	6050	110	2144.633145728
11	6051	111	2144.633145728
11	6052	112	2144.633145728
11	6053	113	2144.633145728
11	6054	114	2144.633145728
11	6055	115	2144.633145728
11	6056	116	2144.633145728
11	6057	117	2144.633145728
11	6058	118	2144.633145728
11	6059	119	2144.633145728
11	6060	120	2144.633145728
11	6061	121	2144.633145728
11	6062	122	2144.633145728
11	6063	123	2144.633145728
11	6065	124	2144.2754340136
11	6066	125	2142.4846802864
11	6067	126	2139.1451827293
11	6068	127	2134.908475054
11	6069	128	2127.149872842
11	6070	129	2120.4387881567
11	6071	130	2112.3739490838
11	6072	131	2103.147663089
11	6073	132	2093.629591034
11	6074	133	2084.0951069517
11	6076	134	2074.579488395
11	6077	135	2065.0639168544
11	6078	136	2055.5512337412
11	6079	137	2046.0342183947
11	6080	138	2036.0487979884
11	6081	139	2026.0452900858
11	6082	140	2016.0563570814
11	6083	141	2006.0729706188
11	6084	142	1996.0847308773
11	6085	143	1986.0883360283
11	6086	144	1976.106136184
11	6087	145	1966.0952727045
11	6088	146	1956.0879377604
11	6089	147	1946.1023564262
11	6090	148	1936.1053083714
11	6091	149	1926.3526811849
11	6092	150	1916.618181454
11	6093	151	1906.8885864745
11	6094	152	1897.1661472071
11	6095	153	1887.4379255387
11	6097	154	1877.7068625629
11	6098	155	1867.9731467689
11	6099	156	1858.2471694911
11	6100	157	1848.516762564
11	6101	158	1838.7884987453
11	6102	159	1828.8682903362
11	6103	160	1818.7674692031
11	6104	161	1808.6556126159
11	6105	162	1798.6881454488
11	6106	163	1788.7282369935
11	6108	164	1778.7716701351
11	6109	165	1768.8148926139
11	6110	166	1758.8629838625
11	6111	167	1748.9223574745
11	6112	168	1738.9917706434
11	6113	169	1729.0392786098
11	6114	170	1719.0915389528
11	6115	171	1709.1409424301
11	6116	172	1699.1952381799
11	6117	173	1689.2380949382
11	6118	174	1679.2882738797
11	6339	175	1669.3451070891
11	6340	176	1659.395775152
11	9309	177	1649.4270165171
11	9310	178	1639.4901366775
11	14451	179	1629.5258021428
11	14452	180	1619.5642357833
11	15436	181	1609.7627247096
11	15437	182	1599.9604399907
11	15913	183	1590.1700976605
11	15915	184	1580.3662023852
11	15916	185	1570.5647547044
11	15917	186	1560.7786372968
11	15918	187	1550.434129402
11	15919	188	1539.9118072168
11	15920	189	1529.3927900881
11	15921	190	1518.8715863216
11	15922	191	1508.3494753712
11	15923	192	1497.4541218153
11	15924	193	1486.0624435559
11	15926	194	1474.6939624506
11	15927	195	1463.3160897251
11	15928	196	1451.9234011091
11	15929	197	1439.8787805256
11	15930	198	1427.305272048
11	15931	199	1414.7230042866
11	15932	200	1402.1630774252
12	5	4	1578.4506684253
12	6	5	1579.5537930429
12	7	6	1581.4165868293
12	8	7	1586.3131998433
12	9	8	1592.5493268352
12	10	9	1600.0762428036
12	11	10	1608.9662610246
12	12	11	1618.8381252186
12	13	12	1628.7265753681
12	14	13	1638.6555796713
12	15	14	1648.8046840783
12	16	15	1660.6325348346
12	17	16	1673.301875555
12	18	17	1682.2138796467
12	19	18	1691.5459182626
12	20	19	1695.5099147679
12	21	20	1697.3308411958
12	22	21	1698.6335971011
12	23	22	1699.8391930545
12	24	23	1700.7320023719
12	25	24	1701.2941834759
12	26	25	1708.3978488175
12	27	26	1718.9439634858
12	28	27	1731.5308475178
12	29	28	1745.2985167308
12	30	29	1759.1189484736
12	31	30	1773.033284259
12	32	31	1786.9263172904
12	33	32	1800.8424062571
12	34	33	1814.7415532097
12	35	34	1828.6279946407
12	36	35	1842.5211894047
12	37	36	1856.4504067414
12	38	37	1870.362115399
12	39	38	1884.2511058366
12	40	39	1898.150578063
12	41	40	1912.0449035605
12	42	41	1925.9381259941
12	43	42	1939.8457802581
12	44	43	1953.7382693188
12	45	44	1967.6194902081
12	46	45	1981.5164272105
12	47	46	1995.4064328251
12	48	47	2009.2884140396
12	49	48	2023.165334505
12	50	49	2037.0672076773
12	51	50	2050.942565321
12	52	51	2064.8483957723
12	53	52	2078.754013543
12	54	53	2092.6537938379
12	55	54	2105.6893007364
12	56	55	2115.3934075218
12	57	56	2120.5034639826
12	58	57	2120.5707901428
12	59	58	2120.100904949
12	60	59	2119.6305731572
12	61	60	2119.160115581
12	62	61	2118.6901442679
12	63	62	2118.2197627351
12	64	63	2117.748758764
12	65	64	2117.2785659507
12	66	65	2116.8085654471
12	67	66	2116.3378755087
12	68	67	2115.8670632252
12	69	68	2115.0711128758
12	70	69	2113.1158412341
12	71	70	2111.1613431666
12	72	71	2106.8160774671
12	73	72	2102.339647443
12	74	73	2097.6526627708
12	76	74	2091.0742531046
12	77	75	2086.1209481629
12	78	76	2082.6798211997
12	79	77	2080.5197256459
12	80	78	2079.3552690716
12	81	79	2078.806146726
12	82	80	2078.5872148043
12	83	81	2078.5070506316
12	84	82	2078.4782376122
12	85	83	2078.4678301709
12	86	84	2078.4641181994
12	203	85	2078.4627960678
12	204	86	2078.4623240866
12	2052	87	2078.4621536219
12	2053	88	2078.4620918585
12	5400	89	2078.4620698206
12	5401	90	2078.4620623672
12	6030	91	2078.4620623672
12	6031	92	2078.4620623672
12	6032	93	2078.4620623672
12	6033	94	2078.4620623672
12	6034	95	2078.4620623672
12	6035	96	2078.4620623672
12	6036	97	2078.4620623672
12	6037	98	2078.4620623672
12	6038	99	2078.4620623672
12	6039	100	2078.4620623672
12	6040	101	2078.4620623672
12	6041	102	2078.4620623672
12	6042	103	2078.4620623672
12	6044	104	2078.4620623672
12	6045	105	2078.4620623672
12	6046	106	2078.4620623672
12	6047	107	2078.4620623672
12	6048	108	2078.4620623672
12	6049	109	2078.4620623672
12	6050	110	2078.4620623672
12	6051	111	2078.4620623672
12	6052	112	2078.4620623672
12	6053	113	2078.4620623672
12	6054	114	2078.4620623672
12	6055	115	2078.4620623672
12	6056	116	2078.4620623672
12	6057	117	2078.4620623672
12	6058	118	2078.4620623672
12	6059	119	2078.4620623672
12	6060	120	2078.4620623672
12	6061	121	2078.4620623672
12	6062	122	2078.4620623672
12	6063	123	2078.4620623672
12	6065	124	2078.2514831284
12	6066	125	2077.1972946841
12	6067	126	2075.0037653139
12	6068	127	2070.9101691684
12	6069	128	2067.4514232809
12	6070	129	2060.2880828883
12	6071	130	2051.6797594661
12	6072	131	2041.8317199564
12	6073	132	2031.6722311098
12	6074	133	2021.4952242402
12	6076	134	2011.3383542318
12	6077	135	2001.1815344077
12	6078	136	1991.0277976608
12	6079	137	1980.8694367334
12	6080	138	1971.1272283681
12	6081	139	1961.4031075193
12	6082	140	1951.6931545082
12	6083	141	1941.9885931304
12	6084	142	1932.2793140197
12	6085	143	1922.5621075649
12	6086	144	1912.8586996645
12	6087	145	1903.1274286723
12	6088	146	1893.3995876675
12	6089	147	1883.6928927181
12	6090	148	1873.9750513006
12	6091	149	1864.0194978677
12	6092	150	1854.0443311147
12	6093	151	1844.0741903735
12	6094	152	1834.1113822553
12	6095	153	1824.142648777
12	6097	154	1814.1710037459
12	6098	155	1804.1966403108
12	6099	156	1794.2302067121
12	6100	157	1784.2592339488
12	6101	158	1774.2904572785
12	6102	159	1764.5302406047
12	6103	160	1754.9388907133
12	6104	161	1745.3370619807
12	6105	162	1735.6222454337
12	6106	163	1725.8613688545
12	6108	164	1716.1037670961
12	6109	165	1706.3459588848
12	6110	166	1696.5929221492
12	6111	167	1686.8509423174
12	6112	168	1677.1188014196
12	6113	169	1667.3651930578
12	6114	170	1657.6162421042
12	6115	171	1647.8644913742
12	6116	172	1638.1175351534
12	6117	173	1628.3593685301
12	6118	174	1618.6083777677
12	6339	175	1608.8639082992
12	6340	176	1599.1133968849
12	9309	177	1589.3438469823
12	9310	178	1579.6055388311
12	14451	179	1569.8403246198
12	14452	180	1560.0778232673
12	15436	181	1550.3210563753
12	15437	182	1540.4261354338
12	15913	183	1530.5432697423
12	15915	184	1520.6467230245
12	15916	185	1510.7526470311
12	15917	186	1500.8740461897
12	15918	187	1491.5384087367
12	15919	188	1482.437612718
12	15920	189	1473.3396752551
12	15921	190	1464.2398465611
12	15922	191	1455.1392332409
12	15923	192	1446.5265005752
12	15924	193	1438.5040472653
12	15926	194	1430.4979302743
12	15927	195	1422.4851993471
12	15928	196	1414.4620345058
12	15929	197	1407.6222093813
12	15930	198	1401.6943069091
12	15931	199	1395.7622747878
12	15932	200	1389.840775501
13	6	5	4.0332649588119
13	7	6	5.8265110515686
13	8	7	7.7852127750962
13	9	8	9.5658873894228
13	10	9	11.450149483434
13	11	10	13.391487500134
13	12	11	13.949883621705
13	13	12	13.87602620427
13	14	13	13.885232782268
13	15	14	13.987373048679
13	16	15	13.890608048609
13	17	16	13.887004709987
13	18	17	13.926980708602
13	19	18	13.89086526999
13	20	19	13.965056618985
13	21	20	13.946692067499
13	22	21	13.097137451398
13	23	22	11.939132677032
13	24	23	7.4783001788439
13	25	24	7.8592269216425
13	26	25	9.5749213322898
13	27	26	11.610942506126
13	28	27	13.581243869506
13	29	28	13.973211987913
13	30	29	13.918392209036
13	31	30	13.928662607018
13	32	31	13.985277111761
13	33	32	13.95532245066
13	34	33	13.938708755139
13	35	34	13.908545650935
13	36	35	13.927478809105
13	37	36	13.897819017794
13	38	37	13.989504252097
13	39	38	13.94374062394
13	40	39	13.903882643976
13	41	40	13.969130632835
13	42	41	13.884234787642
13	43	42	13.881978327318
13	44	43	13.927070145076
13	45	44	13.922745489741
13	46	45	13.95273740395
13	47	46	13.968270483359
13	48	47	13.918685564972
13	49	48	13.921468284922
13	50	49	13.897015957548
13	51	50	13.964752228069
13	52	51	13.91147568828
13	53	52	13.974545761354
13	54	53	13.965476403411
13	55	54	13.989670229855
13	56	55	13.951804798429
13	57	56	13.892850009208
13	58	57	13.958218119799
13	59	58	13.933717581006
13	60	59	13.982012811573
13	61	60	13.954506225567
13	62	61	13.954468280503
13	63	62	13.914126337939
13	64	63	13.998578815588
13	65	64	13.932968401979
13	66	65	13.954534002345
13	67	66	13.998651232829
13	68	67	13.999179182528
13	69	68	13.886099785112
13	70	69	13.881868150404
13	71	70	13.887636745651
13	72	71	13.978686858166
13	73	72	13.970344127666
13	74	73	13.925369204739
13	76	74	11.503028205973
13	77	75	8.3084939661969
13	78	76	5.5757626568646
13	79	77	3.3211618849162
13	80	78	1.6266335353547
13	81	79	0.70715133051593
13	82	80	0.26232084274652
13	83	81	0.09568805664727
13	84	82	0.033835632228035
13	85	83	0.012538818862259
13	86	84	0.0044949869302171
13	203	85	0.0015515939487704
13	204	86	0.00056220080715219
13	2052	87	0.00020206205078003
13	2053	88	7.4991505956587e-05
13	5400	89	2.6407687680597e-05
13	5401	90	0
13	6030	91	0
13	6031	92	0
13	6032	93	0
13	6033	94	0
13	6034	95	0
13	6035	96	0
13	6036	97	0
13	6037	98	0
13	6038	99	0
13	6039	100	0
13	6040	101	0
13	6041	102	0
13	6042	103	0
13	6044	104	0
13	6045	105	0
13	6046	106	0
13	6047	107	0
13	6048	108	0
13	6049	109	0
13	6050	110	0
13	6051	111	0
13	6052	112	0
13	6053	113	0
13	6054	114	0
13	6055	115	0
13	6056	116	0
13	6057	117	0
13	6058	118	0
13	6059	119	0
13	6060	120	0
13	6061	121	0
13	6062	122	0
13	6063	123	0
13	6065	124	1.0074459883879
13	6066	125	2.9889302256727
13	6067	126	4.8098560286978
13	6068	127	6.8175175217465
13	6069	128	8.7692460296107
13	6070	129	10.599613138129
13	6071	130	12.63114044604
13	6072	131	13.911355651631
13	6073	132	13.959096302334
13	6074	133	13.985669557508
13	6076	134	13.912786148109
13	6077	135	13.880683887878
13	6078	136	13.921652116431
13	6079	137	13.904044170342
13	6080	138	13.928399279253
13	6081	139	13.947232982973
13	6082	140	13.957098587838
13	6083	141	13.872669367229
13	6084	142	13.988834063003
13	6085	143	13.962365872057
13	6086	144	13.978590016267
13	6087	145	13.996544766314
13	6088	146	13.909791962707
13	6089	147	13.955426083545
13	6090	148	13.916719595476
13	6091	149	13.96472714375
13	6092	150	13.96898798909
13	6093	151	13.902139999291
13	6094	152	13.980534003156
13	6095	153	13.976162572829
13	6097	154	13.902045026864
13	6098	155	13.998268041729
13	6099	156	13.981719435903
13	6100	157	13.904254397955
13	6101	158	13.91068194794
13	6102	159	13.901592570813
13	6103	160	13.871256113877
13	6104	161	13.9870051032
13	6105	162	13.963580676371
13	6106	163	13.94083829636
13	6108	164	13.980116114989
13	6109	165	13.977826093403
13	6110	166	13.954251742228
13	6111	167	13.894492452065
13	6112	168	13.893317757975
13	6113	169	13.907786323659
13	6114	170	13.910502062014
13	6115	171	13.881678228341
13	6116	172	13.899310339873
13	6117	173	13.872349197764
13	6118	174	13.895146320874
13	6339	175	13.975084472168
13	6340	176	13.915615806044
13	9309	177	13.983601140513
13	9310	178	13.901822753502
13	14451	179	13.971918848483
13	14452	180	13.912339184245
13	15436	181	13.942714784404
13	15437	182	13.915853303717
13	15913	183	13.922881097118
13	15915	184	13.916264264572
13	15916	185	13.879832274488
13	15917	186	13.932997833022
13	15918	187	13.939943925054
13	15919	188	13.911533115392
13	15920	189	13.909209262494
13	15921	190	13.90328337074
13	15922	191	13.932158297678
13	15923	192	13.921860637383
13	15924	193	13.959992773633
13	15926	194	13.911786046105
13	15927	195	13.943455341596
13	15928	196	13.990971652481
13	15929	197	13.954088344059
13	15930	198	13.985034477036
13	15931	199	13.887624221304
13	15932	200	13.954445283646
14	7	6	1.7932460927567
14	8	7	1.9587017235276
14	9	8	1.7806746143266
14	10	9	1.8842620940111
14	11	10	1.9413380167005
14	12	11	0.5583961215709
14	13	12	-0.073857417434921
14	14	13	0.0092065779981212
14	15	14	0.10214026641101
14	16	15	-0.096765000070445
14	17	16	-0.0036033386224883
14	18	17	0.039975998615846
14	19	18	-0.036115438612178
14	20	19	0.074191348995083
14	21	20	-0.018364551486448
14	22	21	-0.84955461610103
14	23	22	-1.1580047743662
14	24	23	-4.4608324981877
14	25	24	0.38092674279862
14	26	25	1.7156944106473
14	27	26	2.0360211738362
14	28	27	1.9703013633797
14	29	28	0.39196811840698
14	30	29	-0.054819778876846
14	31	30	0.010270397982096
14	32	31	0.056614504742901
14	33	32	-0.029954661100637
14	34	33	-0.016613695521373
14	35	34	-0.030163104203529
14	36	35	0.018933158169965
14	37	36	-0.029659791311714
14	38	37	0.091685234303586
14	39	38	-0.045763628156855
14	40	39	-0.039857979963999
14	41	40	0.065247988859191
14	42	41	-0.08489584519295
14	43	42	-0.0022564603248618
14	44	43	0.045091817758511
14	45	44	-0.0043246553349299
14	46	45	0.029991914208512
14	47	46	0.015533079409506
14	48	47	-0.0495849183877
14	49	48	0.0027827199501917
14	50	49	-0.024452327373437
14	51	50	0.067736270520836
14	52	51	-0.053276539789513
14	53	52	0.063070073074195
14	54	53	-0.0090693579427903
14	55	54	0.024193826443517
14	56	55	-0.037865431425162
14	57	56	-0.058954789221753
14	58	57	0.065368110591081
14	59	58	-0.024500538792926
14	60	59	0.048295230567454
14	61	60	-0.027506586005911
14	62	61	-3.7945064249811e-05
14	63	62	-0.040341942564119
14	64	63	0.08445247764932
14	65	64	-0.065610413609539
14	66	65	0.021565600365866
14	67	66	0.044117230484263
14	68	67	0.0005279496987356
14	69	68	-0.11307939741528
14	70	69	-0.0042316347081215
14	71	70	0.0057685952470639
14	72	71	0.091050112515221
14	73	72	-0.0083427305007344
14	74	73	-0.044974922926631
14	76	74	-2.4223409987658
14	77	75	-3.1945342397763
14	78	76	-2.7327313093324
14	79	77	-2.2546007719484
14	80	78	-1.6945283495614
14	81	79	-0.91948220483881
14	82	80	-0.44483048776941
14	83	81	-0.16663278609925
14	84	82	-0.061852424419235
14	85	83	-0.021296813365776
14	86	84	-0.0080438319320418
14	203	85	-0.0029433929814467
14	204	86	-0.0009893931416182
14	2052	87	-0.00036013875637216
14	2053	88	-0.00012707054482344
14	5400	89	-4.8583818275989e-05
14	5401	90	-2.6407687680597e-05
14	6030	91	0
14	6031	92	0
14	6032	93	0
14	6033	94	0
14	6034	95	0
14	6035	96	0
14	6036	97	0
14	6037	98	0
14	6038	99	0
14	6039	100	0
14	6040	101	0
14	6041	102	0
14	6042	103	0
14	6044	104	0
14	6045	105	0
14	6046	106	0
14	6047	107	0
14	6048	108	0
14	6049	109	0
14	6050	110	0
14	6051	111	0
14	6052	112	0
14	6053	113	0
14	6054	114	0
14	6055	115	0
14	6056	116	0
14	6057	117	0
14	6058	118	0
14	6059	119	0
14	6060	120	0
14	6061	121	0
14	6062	122	0
14	6063	123	0
14	6065	124	1.0074459883879
14	6066	125	1.9814842372848
14	6067	126	1.8209258030251
14	6068	127	2.0076614930487
14	6069	128	1.9517285078642
14	6070	129	1.8303671085183
14	6071	130	2.0315273079113
14	6072	131	1.2802152055907
14	6073	132	0.047740650703199
14	6074	133	0.026573255173863
14	6076	134	-0.072883409399074
14	6077	135	-0.03210226023104
14	6078	136	0.040968228552956
14	6079	137	-0.017607946088537
14	6080	138	0.024355108910239
14	6081	139	0.018833703720011
14	6082	140	0.0098656048648991
14	6083	141	-0.084429220608435
14	6084	142	0.1161646957742
14	6085	143	-0.026468190946616
14	6086	144	0.016224144210573
14	6087	145	0.017954750047066
14	6088	146	-0.086752803607379
14	6089	147	0.045634120837786
14	6090	148	-0.038706488069147
14	6091	149	0.048007548274473
14	6092	150	0.0042608453403226
14	6093	151	-0.066847989798989
14	6094	152	0.078394003864377
14	6095	153	-0.0043714303267191
14	6097	154	-0.074117545965127
14	6098	155	0.096223014865537
14	6099	156	-0.016548605826683
14	6100	157	-0.077465037947986
14	6101	158	0.0064275499852364
14	6102	159	-0.0090893771266565
14	6103	160	-0.030336456936784
14	6104	161	0.11574898932362
14	6105	162	-0.023424426829443
14	6106	163	-0.022742380010895
14	6108	164	0.039277818629053
14	6109	165	-0.0022900215862336
14	6110	166	-0.023574351174757
14	6111	167	-0.059759290162473
14	6112	168	-0.0011746940901496
14	6113	169	0.014468565683346
14	6114	170	0.0027157383551817
14	6115	171	-0.028823833672796
14	6116	172	0.017632111532148
14	6117	173	-0.026961142108776
14	6118	174	0.022797123109923
14	6339	175	0.0799381512939
14	6340	176	-0.059468666124157
14	9309	177	0.067985334468538
14	9310	178	-0.081778387010562
14	14451	179	0.070096094980835
14	14452	180	-0.059579664238262
14	15436	181	0.030375600159168
14	15437	182	-0.026861480686348
14	15913	183	0.0070277934009209
14	15915	184	-0.006616832546424
14	15916	185	-0.036431990084239
14	15917	186	0.053165558534674
14	15918	187	0.0069460920314306
14	15919	188	-0.028410809661727
14	15920	189	-0.0023238528985541
14	15921	190	-0.0059258917532858
14	15922	191	0.028874926937279
14	15923	192	-0.010297660294455
14	15924	193	0.038132136249915
14	15926	194	-0.048206727528013
14	15927	195	0.031669295490719
14	15928	196	0.047516310885548
14	15929	197	-0.036883308421819
14	15930	198	0.030946132976096
14	15931	199	-0.097410255731084
14	15932	200	0.066821062341333
15	7	6	3.9274001426868
15	8	7	5.2041356246368
15	9	8	5.7574507674447
15	10	9	7.0006276784153
15	11	10	8.2432295261252
15	12	11	3.9110016848773
15	13	12	1.7792042638201
15	14	13	2.0579365757541
15	15	14	2.3818636967155
15	16	15	1.7037407999188
15	17	16	2.0152488537881
15	18	17	2.1655550639215
15	19	18	1.906797412239
15	20	19	2.2849654495652
15	21	20	1.9716653983805
15	22	21	0.973
15	23	22	0.973
15	24	23	0.973
15	25	24	2.2554772362628
15	26	25	5.6120472675651
15	27	26	7.5119842129131
15	28	27	8.4455276517466
15	29	28	3.3560730035355
15	30	29	1.8466200733259
15	31	30	2.0660268329645
15	32	31	2.2281549844786
15	33	32	1.9335288120447
15	34	33	1.9767670407741
15	35	34	1.9283950769156
15	36	35	2.0949799016024
15	37	36	1.9290667558988
15	38	37	2.3468857079218
15	39	38	1.8793040227889
15	40	39	1.8954681876561
15	41	40	2.2553467174174
15	42	41	1.7429567241042
15	43	42	2.0192482635441
15	44	43	2.1827359052182
15	45	44	2.0164367628106
15	46	45	2.1348602115454
15	47	46	2.0878872407227
15	48	47	1.8642059318509
15	49	48	2.0401536442479
15	50	49	1.9464315106901
15	51	50	2.2632042711189
15	52	51	1.851180617826
15	53	52	2.2486511283506
15	54	53	2.0047870143605
15	55	54	2.1193583924862
15	56	55	1.9065956504161
15	57	56	1.8305118457369
15	58	57	2.2544630998412
15	59	58	1.9497933768092
15	60	59	2.199742909699
15	61	60	1.9416842431598
15	62	61	2.0340583936544
15	63	62	1.8947902862501
15	64	63	2.3236156337703
15	65	64	1.8116807487081
15	66	65	2.1067187558746
15	67	66	2.1875465210812
15	68	67	2.0405446651404
15	69	68	1.6487905152147
15	70	69	2.0126291187762
15	71	70	2.0466796925005
15	72	71	2.3433989621326
15	73	72	2.0077208397811
15	74	73	1.8802787050508
15	76	74	0.973
15	77	75	0.973
15	78	76	0.973
15	79	77	0.973
15	80	78	0.973
15	81	79	0.973
15	82	80	0.973
15	83	81	0.973
15	84	82	1.1111278658488
15	85	83	1.1105405169147
15	86	84	1.1102081243603
15	203	85	1.1100737482573
15	204	86	1.1100269865137
15	2052	87	1.1100097299357
15	2053	88	1.1100036152937
15	5400	89	1.1100012735977
15	5401	90	0.973
15	6030	91	0.973
15	6031	92	0.973
15	6032	93	0.973
15	6033	94	0.973
15	6034	95	0.973
15	6035	96	0.973
15	6036	97	0.973
15	6037	98	0.973
15	6038	99	0.973
15	6039	100	0.973
15	6040	101	0.973
15	6041	102	0.973
15	6042	103	0.973
15	6044	104	0.973
15	6045	105	0.973
15	6046	106	0.973
15	6047	107	0.973
15	6048	108	0.973
15	6049	109	0.973
15	6050	110	0.973
15	6051	111	0.973
15	6052	112	0.973
15	6053	113	0.973
15	6054	114	0.973
15	6055	115	0.973
15	6056	116	0.973
15	6057	117	0.973
15	6058	118	0.973
15	6059	119	0.973
15	6060	120	0.973
15	6061	121	0.973
15	6062	122	0.973
15	6063	123	0.973
15	6065	124	1.4032959804234
15	6066	125	2.6839795840135
15	6067	126	3.4630791015344
15	6068	127	4.7667804285314
15	6069	128	5.7200845072804
15	6070	129	6.407023179348
15	6071	130	8.089674348387
15	6072	131	6.3218833112619
15	6073	132	2.1952654366489
15	6074	133	2.1269451191026
15	6076	134	1.7855558300948
15	6077	135	1.9192758908256
15	6078	136	2.1682894028507
15	6079	137	1.9700401564216
15	6080	138	2.1132780923625
15	6081	139	2.0967521261933
15	6082	140	2.0676394119274
15	6083	141	1.7435781492056
15	6084	142	2.4293300508524
15	6085	143	1.945929812323
15	6086	144	2.0913101916029
15	6087	145	2.0990577040159
15	6088	146	1.7388095837429
15	6089	147	2.1877632083839
15	6090	148	1.9005145370032
15	6091	149	2.1968042961102
15	6092	150	2.0500150684712
15	6093	151	1.8048797568188
15	6094	152	2.3009863061562
15	6095	153	2.0216810197987
15	6097	154	1.780515749493
15	6098	155	2.3632863193112
15	6099	156	1.9812120211058
15	6100	157	1.7694840250872
15	6101	158	2.0512663796081
15	6102	159	1.9983405927992
15	6103	160	1.9242939949574
15	6104	161	2.4276901516778
15	6105	162	1.9562892484012
15	6106	163	1.9563851254971
15	6108	164	2.1691450530814
15	6109	165	2.0288611293971
15	6110	166	1.9548839267273
15	6111	167	1.8279616767825
15	6112	168	2.0240172755128
15	6113	169	2.0779186428145
15	6114	170	2.0388041841175
15	6115	171	1.9303371884883
15	6116	172	2.0876231595316
15	6117	173	1.9356815008423
15	6118	174	2.1044779476447
15	6339	175	2.3055260701722
15	6340	176	1.8307829891951
15	9309	177	2.2662806746104
15	9310	178	1.7548306755801
15	14451	179	2.2720005806138
15	14452	180	1.8301239210578
15	15436	181	2.1350531771457
15	15437	182	1.9401591790509
15	15913	183	2.0545426175358
15	15915	184	2.008095298911
15	15916	185	1.9047128092177
15	15917	186	2.2105154788471
15	15918	187	2.0560379228057
15	15919	188	1.9345525540005
15	15920	189	2.0217783396811
15	15921	190	2.0091088827246
15	15922	191	2.1288596155953
15	15923	192	1.9963070300968
15	15924	193	2.1630409260281
15	15926	194	1.8682060152898
15	15927	195	2.1394815211727
15	15928	196	2.1981386720178
15	15929	197	1.9101109931467
15	15930	198	2.1416143091045
15	15931	199	1.7013473059811
15	15932	200	2.2589043103441
18	8	7	2414.8848622198
18	9	8	2412.0691307599
18	10	9	2407.3819784434
18	11	10	2402.4639103656
18	12	11	2396.2016479742
18	13	12	2388.5021761758
18	14	13	2379.5347220144
18	15	14	2369.7521497252
18	16	15	2359.9648396304
18	17	16	2350.1637192596
18	18	17	2340.717056727
18	19	18	2334.4889366638
18	20	19	2338.0188398167
18	21	20	2348.6970945761
18	22	21	2359.0578910074
18	23	22	2372.1753142256
18	24	23	2385.9847009928
18	25	24	2399.0560799135
18	26	25	2411.469456295
18	27	26	2420.8240344936
18	28	27	2428.2511095385
18	29	28	2431.5096723901
18	30	29	2433.2168502312
18	31	30	2435.2011956087
18	32	31	2437.29147981
18	33	32	2438.672857787
18	34	33	2439.5458305131
18	35	34	2440.5569901068
18	36	35	2441.5662171456
18	37	36	2442.5764760413
18	38	37	2443.5864360537
18	39	38	2444.5969193554
18	40	39	2445.6077267987
18	41	40	2446.6171177449
18	42	41	2447.6285385494
18	43	42	2448.6389437378
18	44	43	2449.6489775468
18	45	44	2450.659299592
18	46	45	2449.5461587089
18	47	46	2448.4337074455
18	48	47	2447.3207898499
18	49	48	2446.207873206
18	50	49	2445.0940501215
18	51	50	2443.9833638043
18	52	51	2442.8694501355
18	53	52	2441.7571938549
18	54	53	2440.6460889142
18	55	54	2439.6827321647
18	56	55	2438.7413750661
18	57	56	2437.8192072627
18	58	57	2432.6325302194
18	59	58	2422.106233715
18	60	59	2408.9688818519
18	61	60	2395.0345910933
18	62	61	2381.126587261
18	63	62	2367.2179763186
18	64	63	2353.2984252305
18	65	64	2339.3434596916
18	66	65	2325.3984135713
18	67	66	2311.4586331139
18	68	67	2297.5367558505
18	69	68	2283.6070172336
18	70	69	2269.6839314153
18	71	70	2255.7643697551
18	72	71	2241.8757564033
[...]
404	15921	190	1695.092484748
404	15922	191	1696.4712059237
404	15923	192	1697.5028480021
404	15924	193	1698.1413867651
404	15926	194	1698.6200743932
404	15927	195	1698.9583148509
404	15928	196	1699.1744562369
404	15929	197	1699.2983081816
404	15930	198	1699.3579033967
404	15931	199	1699.3836863134
404	15932	200	1699.3940927023
405	6117	173	4.1722982974219
405	6118	174	6.050894032536
405	6339	175	8.0941174606475
405	6340	176	9.9043262539114
405	9309	177	11.739932488888
405	9310	178	12.063107383124
405	14451	179	11.451604581323
405	14452	180	10.807792567365
405	15436	181	10.456727610217
405	15437	182	10.177739571168
405	15913	183	10.027778008407
405	15915	184	9.8660203747192
405	15916	185	9.7325289176456
405	15917	186	9.6895184191502
405	15918	187	9.5708557140312
405	15919	188	9.5956894040654
405	15920	189	9.4541393154406
405	15921	190	9.4879949003064
405	15922	191	9.4922801435492
405	15923	192	7.7853375847062
405	15924	193	6.0273148123034
405	15926	194	4.4217929042567
405	15927	195	2.9756044794615
405	15928	196	1.8612807007319
405	15929	197	0.96766002488021
405	15930	198	0.42182635174988
405	15931	199	0.17891336776662
405	15932	200	0.072159258200678
406	6118	174	1.8785957351141
406	6339	175	2.0432234281115
406	6340	176	1.8102087932639
406	9309	177	1.835606234977
406	9310	178	0.32317489423551
406	14451	179	-0.61150280180069
406	14452	180	-0.643812013958
406	15436	181	-0.35106495714859
406	15437	182	-0.27898803904832
406	15913	183	-0.14996156276111
406	15915	184	-0.16175763368804
406	15916	185	-0.13349145707354
406	15917	186	-0.043010498495448
406	15918	187	-0.11866270511896
406	15919	188	0.024833690034201
406	15920	189	-0.14155008862477
406	15921	190	0.033855584865764
406	15922	191	0.004285243242828
406	15923	192	-1.706942558843
406	15924	193	-1.7580227724029
406	15926	194	-1.6055219080467
406	15927	195	-1.4461884247951
406	15928	196	-1.1143237787296
406	15929	197	-0.89362067585166
406	15930	198	-0.54583367313033
406	15931	199	-0.24291298398327
406	15932	200	-0.10675410956594
407	6118	174	4.1618523283488
407	6339	175	5.5351270590395
407	6340	176	5.9984019279033
407	9309	177	7.0193339422111
407	9310	178	2.7936236636263
407	14451	179	0.973
407	14452	180	0.973
407	15436	181	0.973
407	15437	182	0.973
407	15913	183	1.3244795779926
407	15915	184	1.2900392714646
407	15916	185	1.3515504879559
407	15917	186	1.561024062663
407	15918	187	1.3789823116108
407	15919	188	1.7119463571957
407	15920	189	1.3216150467812
407	15921	190	1.724018738573
407	15922	191	1.6567210991782
407	15923	192	0.973
407	15924	193	0.973
407	15926	194	0.973
407	15927	195	0.973
407	15928	196	0.973
407	15929	197	0.973
407	15930	198	0.973
407	15931	199	0.973
407	15932	200	0.973
410	6339	175	2414.8887947192
410	6340	176	2411.839309744
410	9309	177	2407.1483131133
410	9310	178	2402.1055246805
410	14451	179	2395.7036317975
410	14452	180	2387.9536180414
410	15436	181	2378.9356486216
410	15437	182	2369.7263681659
410	15913	183	2360.5372305254
410	15915	184	2351.4839329404
410	15916	185	2342.9731922124
410	15917	186	2335.9011286141
410	15918	187	2333.8668947089
410	15919	188	2339.2133343287
410	15920	189	2347.1266310998
410	15921	190	2354.6020069881
410	15922	191	2362.2321791128
410	15923	192	2371.5147810123
410	15924	193	2379.3884491734
410	15926	194	2385.8827709075
410	15927	195	2391.0956500977
410	15928	196	2395.0325799037
410	15929	197	2397.8443623888
410	15930	198	2399.6548158071
410	15931	199	2400.6964344787
410	15932	200	2401.2186905668
411	6339	175	1578.4462487241
411	6340	176	1579.5660036923
411	9309	177	1581.567239346
411	9310	178	1586.6748893065
411	14451	179	1593.1591248373
411	14452	180	1601.0088210888
411	15436	181	1610.1427817466
411	15437	182	1619.4705141289
411	15913	183	1628.7778446134
411	15915	184	1637.9475878356
411	15916	185	1646.5883259233
411	15917	186	1655.6416680394
411	15918	187	1666.3156582909
411	15919	188	1674.8092562454
411	15920	189	1681.3794476818
411	15921	190	1688.1209288947
411	15922	191	1694.1577303363
411	15923	192	1695.5451861555
411	15924	193	1696.6523765232
411	15926	194	1697.4253457403
411	15927	195	1697.933603839
411	15928	196	1698.3058668431
411	15929	197	1698.5717396531
411	15930	198	1698.7429301143
411	15931	199	1698.8414221155
411	15932	200	1698.8908049157
412	6340	176	4.1406812462363
412	9309	177	6.0654450932554
412	9310	178	8.1474102431548
412	14451	179	9.9105920719601
412	14452	180	11.990486721428
412	15436	181	13.100831135974
412	15437	182	13.077337078374
412	15913	183	13.110146855266
412	15915	184	12.647587796033
412	15916	185	11.861903611965
412	15917	186	11.251897054644
412	15918	187	10.762691580144
412	15919	188	10.395253332004
412	15920	189	10.160463306642
412	15921	190	9.9230536362815
412	15922	191	9.8511583822751
412	15923	192	8.7802807883677
412	15924	193	7.3350389366889
412	15926	194	5.9150598572958
412	15927	195	4.6677783165768
412	15928	196	3.4030222442361
412	15929	197	2.3886696288934
412	15930	198	1.3984172396444
412	15931	199	0.77129443831687
412	15932	200	0.35789611826728
413	9309	177	1.9247638470191
413	9310	178	2.0819651498995
413	14451	179	1.7631818288052
413	14452	180	2.0798946494679
413	15436	181	1.1103444145459
413	15437	182	-0.023494057599454
413	15913	183	0.032809776891954
413	15915	184	-0.46255905923375
413	15916	185	-0.78568418406799
413	15917	186	-0.6100065573202
413	15918	187	-0.48920547450007
413	15919	188	-0.3674382481402
413	15920	189	-0.23479002536233
413	15921	190	-0.23740967036031
413	15922	191	-0.071895254006449
413	15923	192	-1.0708775939074
413	15924	193	-1.4452418516788
413	15926	194	-1.4199790793931
413	15927	195	-1.247281540719
413	15928	196	-1.2647560723407
413	15929	197	-1.0143526153426
413	15930	198	-0.99025238924902
413	15931	199	-0.62712280132755
413	15932	200	-0.41339832004959
414	9309	177	4.2367774106375
414	9310	178	5.6409845367817
414	14451	179	5.889286488747
414	14452	180	7.857959183656
414	15436	181	5.455390510904
414	15437	182	1.8734061273251
414	15913	183	2.0542565448375
414	15915	184	0.973
414	15916	185	0.973
414	15917	186	0.973
414	15918	187	0.973
414	15919	188	0.973
414	15920	189	0.973
414	15921	190	0.973
414	15922	191	1.5028462858087
414	15923	192	0.973
414	15924	193	0.973
414	15926	194	0.973
414	15927	195	0.973
414	15928	196	0.973
414	15929	197	0.973
414	15930	198	0.973
414	15931	199	0.973
414	15932	200	0.973
417	9310	178	2414.8411606834
417	14451	179	2411.8212945821
417	14452	180	2407.2340216642
417	15436	181	2402.4078865714
417	15437	182	2396.1670496335
417	15913	183	2388.4829322497
417	15915	184	2379.706800545
417	15916	185	2370.8227059451
417	15917	186	2361.9707496609
417	15918	187	2353.1122649581
417	15919	188	2344.2440478104
417	15920	189	2336.3270312872
417	15921	190	2333.8656889133
417	15922	191	2341.5537264398
417	15923	192	2350.9971634647
417	15924	193	2359.2685692153
417	15926	194	2368.0565676257
417	15927	195	2375.8908851432
417	15928	196	2382.2379090653
417	15929	197	2387.2071075563
417	15930	198	2390.8762875041
417	15931	199	2393.3790716749
417	15932	200	2394.9531358999
418	9310	178	1578.4637396941
418	14451	179	1579.5726187658
418	14452	180	1581.4804283911
418	15436	181	1586.3686383655
418	15437	182	1592.6897464124
418	15913	183	1600.4726987174
418	15915	184	1609.3617110867
418	15916	185	1618.3600749951
418	15917	186	1627.3258872181
418	15918	187	1636.2983118296
418	15919	188	1645.2805940667
418	15920	189	1655.0964463288
418	15921	190	1667.2697982499
418	15922	191	1676.6992636202
418	15923	192	1684.8699907148
418	15924	193	1692.3293515956
418	15926	194	1695.0282924725
418	15927	195	1696.199275516
418	15928	196	1696.99152584
418	15929	197	1697.565916175
418	15930	198	1697.9128616415
418	15931	199	1698.1495165974
418	15932	200	1698.2983548818
419	14451	179	4.0301020879068
419	14452	180	5.7866659510231
419	15436	181	7.8106567098528
419	15437	182	9.7852737790208
419	15913	183	11.771192707108
419	15915	184	12.646955651697
419	15916	185	12.691492472105
419	15917	186	12.65436932687
419	15918	187	12.633675903024
419	15919	188	12.599634996388
419	15920	189	12.659472650269
419	15921	190	12.658417382807
419	15922	191	12.63769881008
419	15923	192	12.043301552481
419	15924	193	10.413530604008
419	15926	194	8.7867382522903
419	15927	195	7.322603631566
419	15928	196	5.7391122827922
419	15929	197	4.4579553424186
419	15930	198	3.0844155497465
419	15931	199	2.0439939088209
419	15932	200	1.2355295623238
420	14452	180	1.7565638631163
420	15436	181	2.0239907588297
420	15437	182	1.974617069168
420	15913	183	1.9859189280868
420	15915	184	0.87576294458965
420	15916	185	0.044536820407956
420	15917	186	-0.037123145235237
420	15918	187	-0.020693423845804
420	15919	188	-0.034040906636511
420	15920	189	0.059837653881406
420	15921	190	-0.0010552674625082
420	15922	191	-0.020718572726473
420	15923	192	-0.59439725759904
420	15924	193	-1.6297709484727
420	15926	194	-1.6267923517181
420	15927	195	-1.4641346207242
420	15928	196	-1.5834913487738
420	15929	197	-1.2811569403737
420	15930	198	-1.3735397926721
420	15931	199	-1.0404216409256
420	15932	200	-0.80846434649705
421	14452	180	3.8567292070852
421	15436	181	5.3407005675328
421	15437	182	6.3252391424865
421	15913	183	7.4622837645495
421	15915	184	4.5762074728406
421	15916	185	2.0473074295133
421	15917	186	1.7944271933776
421	15918	187	1.8427210667168
421	15919	188	1.7992172049887
421	15920	189	2.0906751831929
421	15921	190	1.9047974625166
421	15922	191	1.8429964782652
421	15923	192	0.973
421	15924	193	0.973
421	15926	194	0.973
421	15927	195	0.973
421	15928	196	0.973
421	15929	197	0.973
421	15930	198	0.973
421	15931	199	0.973
421	15932	200	0.973
424	15436	181	2414.8779380508
424	15437	182	2411.9970329538
424	15913	183	2407.4862191244
424	15915	184	2402.5944783367
424	15916	185	2396.3107487656
424	15917	186	2388.7262865513
424	15918	187	2380.8504155858
424	15919	188	2372.9843149764
424	15920	189	2365.0945059197
424	15921	190	2357.2114851256
424	15922	191	2349.3247325944
424	15923	192	2341.6477208548
424	15924	193	2335.177532454
424	15926	194	2334.0491336513
424	15927	195	2341.3654217112
424	15928	196	2349.8683449661
424	15929	197	2358.1906958385
424	15930	198	2367.7850334342
424	15931	199	2376.123123192
424	15932	200	2382.3014627453
425	15436	181	1578.4502352364
425	15437	182	1579.5080885524
425	15913	183	1581.2249871083
425	15915	184	1586.1796466131
425	15916	185	1592.5441989889
425	15917	186	1600.2262143353
425	15918	187	1608.2033866011
425	15919	188	1616.1706628418
425	15920	189	1624.1619524732
425	15921	190	1632.1463665301
425	15922	191	1640.1345603233
425	15923	192	1648.2851355597
425	15924	193	1657.3384426096
425	15926	194	1668.4333620165
425	15927	195	1676.5471962271
425	15928	196	1683.8519939184
425	15929	197	1691.3572983872
425	15930	198	1694.9877066864
425	15931	199	1696.23398777
425	15932	200	1696.9990901463
426	15437	182	3.8568705508995
426	15913	183	5.7107599186359
426	15915	184	7.8633960219004
426	15916	185	9.8373710972068
426	15917	186	11.236298415992
426	15918	187	11.218727136085
426	15919	188	11.165747769568
426	15920	189	11.275574481318
426	15921	190	11.176221124339
426	15922	191	11.209788830762
426	15923	192	11.23493280611
426	15924	193	11.244871398192
426	15926	194	11.147921455172
426	15927	195	11.249734024895
426	15928	196	11.198601163442
426	15929	197	11.229697564426
426	15930	198	9.6867360400611
426	15931	199	7.3906289849601
426	15932	200	5.2776683298751
427	15913	183	1.8538893677364
427	15915	184	2.1526361032645
427	15916	185	1.9739750753064
427	15917	186	1.3989273187849
427	15918	187	-0.017571279907132
427	15919	188	-0.052979366516229
427	15920	189	0.10982671174919
427	15921	190	-0.099353356978391
427	15922	191	0.033567706423346
427	15923	192	0.025143975347746
427	15924	193	0.0099385920818893
427	15926	194	-0.096949943020007
427	15927	195	0.10181256972253
427	15928	196	-0.051132861452643
427	15929	197	0.031096400984097
427	15930	198	-1.542961524365
427	15931	199	-2.296107055101
427	15932	200	-2.112960655085
428	15913	183	3.954187267393
428	15915	184	5.6136607088567
428	15916	185	6.3524123290938
428	15917	186	5.5713130043435
428	15918	187	1.7341214897485
428	15919	188	1.6346696674767
428	15920	189	2.0848090125448
428	15921	190	1.5104964706997
428	15922	191	1.8715716279651
428	15923	192	1.8510573306451
428	15924	193	1.8107381632415
428	15926	194	1.5152888775727
428	15927	195	2.0602422914509
428	15928	196	1.6419569903935
428	15929	197	1.8666993982651
428	15930	198	0.973
428	15931	199	0.973
428	15932	200	0.973
431	15915	184	2414.8788141906
431	15916	185	2412.0652779912
431	15917	186	2407.551033954
431	15918	187	2402.8081792406
431	15919	188	2396.7116066761
431	15920	189	2389.3548582763
431	15921	190	2380.744486539
431	15922	191	2371.7330126754
431	15923	192	2362.7249511016
431	15924	193	2353.713147666
431	15926	194	2344.6833110899
431	15927	195	2336.5824422954
431	15928	196	2333.8309977797
431	15929	197	2341.5169611881
431	15930	198	2350.8687225336
431	15931	199	2358.6832128648
431	15932	200	2366.4176509907
432	15915	184	1578.4499135222
432	15916	185	1579.4830293311
432	15917	186	1581.1593386149
432	15918	187	1585.9631970385
432	15919	188	1592.13818515
432	15920	189	1599.5895577734
432	15921	190	1608.3106781319
432	15922	191	1617.4380596867
432	15923	192	1626.5619850615
432	15924	193	1635.6897004275
432	15926	194	1644.8356808797
432	15927	195	1654.7694804864
432	15928	196	1667.0497573456
432	15929	197	1676.6695734682
432	15930	198	1684.7541594654
432	15931	199	1691.8014625777
432	15932	200	1694.7833261965
433	15916	185	3.7541588574195
433	15917	186	5.7118946708985
433	15918	187	7.5933595718689
433	15919	188	9.6098677490083
433	15920	189	11.185632338146
433	15921	190	12.828064661029
433	15922	191	12.858428171399
433	15923	192	12.773671595888
433	15924	193	12.883004034611
433	15926	194	12.869395815994
433	15927	195	12.818268577999
433	15928	196	12.806688598868
433	15929	197	12.836134299191
433	15930	198	11.620574435326
433	15931	199	9.6698515647951
433	15932	200	7.8544108825929
434	15917	186	1.9577358134789
434	15918	187	1.8814649009705
434	15919	188	2.0165081771393
434	15920	189	1.5757645891374
434	15921	190	1.6424323228832
434	15922	191	0.030363510369789
434	15923	192	-0.084756575510838
434	15924	193	0.10933243872365
434	15926	194	-0.013608218617739
434	15927	195	-0.051127237994223
434	15928	196	-0.01157997913193
434	15929	197	0.029445700323842
434	15930	198	-1.2155598638658
434	15931	199	-1.9507228705305
434	15932	200	-1.8154406822022
435	15917	186	4.0977108093026
435	15918	187	4.9598296968464
435	15919	188	6.3257520636553
435	15920	189	6.0267292681764
435	15921	190	7.0015194515765
435	15922	191	2.0207811610832
435	15923	192	1.657822167393
435	15924	193	2.2684578372911
435	15926	194	1.885514090343
435	15927	195	1.7649741148387
435	15928	196	1.8860904866543
435	15929	197	2.015683544342
435	15930	198	0.973
435	15931	199	0.973
435	15932	200	0.973
438	15918	187	2414.8585700947
438	15919	188	2411.9969703056
438	15920	189	2407.3590078291
438	15921	190	2402.5038493358
438	15922	191	2396.2110340785
438	15923	192	2388.5356686392
438	15924	193	2379.5098477243
438	15926	194	2370.1418326314
438	15927	195	2360.7787300163
438	15928	196	2351.4193250611
438	15929	197	2342.1844435789
438	15930	198	2334.9812863778
438	15931	199	2335.3851237283
438	15932	200	2345.3407236338
439	15918	187	1578.4573470484
439	15919	188	1579.508111557
439	15920	189	1581.3538346253
439	15921	190	1586.271441306
439	15922	191	1592.6451962292
439	15923	192	1600.4192840196
439	15924	193	1609.5611971607
439	15926	194	1619.0497058611
439	15927	195	1628.533238899
439	15928	196	1638.0130267162
439	15929	197	1647.5980469361
439	15930	198	1658.5203126362
439	15931	199	1671.4201332461
439	15932	200	1679.768871597
440	15919	188	3.8585680350128
440	15920	189	5.8516531472004
440	15921	190	7.8973758989761
440	15922	191	9.8557514331911
440	15923	192	11.942946414342
440	15924	193	13.281673413053
440	15926	194	13.354737228594
440	15927	195	13.387590942945
440	15928	196	13.339860889638
440	15929	197	13.271152209534
440	15930	198	13.34358413055
440	15931	199	13.36102348745
440	15932	200	12.234186555332
441	15920	189	1.9930851121875
441	15921	190	2.0457227517758
441	15922	191	1.958375534215
441	15923	192	2.0871949811513
441	15924	193	1.3387269987105
441	15926	194	0.073063815541101
441	15927	195	0.032853714351075
441	15928	196	-0.047730053307022
441	15929	197	-0.068708680104464
441	15930	198	0.072431921015959
441	15931	199	0.017439356900287
441	15932	200	-1.126836932118
442	15920	189	4.2215389405203
442	15921	190	5.4300282473119
442	15922	191	6.3254843183846
442	15923	192	7.8509615055178
442	15924	193	6.2522535986235
442	15926	194	2.2094162023778
442	15927	195	2.0834731771849
442	15928	196	1.8193611538366
442	15929	197	1.7463689745143
442	15930	198	2.2060989357288
442	15931	199	2.0310298725026
442	15932	200	0.973
445	15921	190	2414.8925589694
445	15922	191	2411.9627857993
445	15923	192	2407.3062772232
445	15924	193	2402.3654572419
445	15926	194	2395.9558072921
445	15927	195	2388.1006089912
445	15928	196	2378.978760769
445	15929	197	2369.4012116214
445	15930	198	2359.8513236765
445	15931	199	2350.290784059
445	15932	200	2341.0180881016
446	15921	190	1578.444866511
446	15922	191	1579.5206639292
446	15923	192	1581.4072434641
446	15924	193	1586.4116134318
446	15926	194	1592.9037058027
446	15927	195	1600.8599395072
446	15928	196	1610.0991150811
446	15929	197	1619.7998529123
446	15930	198	1629.4725737572
446	15931	199	1639.1560832784
446	15932	200	1649.0911634816
447	15922	191	3.9973312404595
447	15923	192	5.9655132869614
447	15924	193	8.0251987055532
447	15926	194	10.022291549822
447	15927	195	12.077283199195
447	15928	196	13.597041808876
447	15929	197	13.66531432328
447	15930	198	13.566644394974
447	15931	199	13.582692384666
447	15932	200	13.596724563934
448	15923	192	1.9681820465019
448	15924	193	2.0596854185918
448	15926	194	1.9970928442688
448	15927	195	2.054991649373
448	15928	196	1.519758609681
448	15929	197	0.068272514403798
448	15930	198	-0.098669928305316
448	15931	199	0.016047989691142
448	15932	200	0.014032179268542
449	15923	192	4.2470211938026
449	15924	193	5.5284636503922
449	15926	194	6.5101960467323
449	15927	195	7.8366535299921
449	15928	196	6.978222049931
449	15929	197	2.2297984887385
449	15930	198	1.6725169632209
449	15931	199	2.0492499954432
449	15932	200	2.0440939392049
452	15924	193	2414.8450449788
452	15926	194	2411.8481639778
452	15927	195	2407.1918824697
452	15928	196	2402.1068140625
452	15929	197	2395.6393894139
452	15930	198	2387.8540473643
452	15931	199	2378.7425860802
452	15932	200	2368.9560980042
453	15924	193	1578.4623134006
453	15926	194	1579.5627524639
453	15927	195	1581.5231095897
453	15928	196	1586.6735833399
453	15929	197	1593.2241935218
453	15930	198	1601.1096724672
453	15931	199	1610.3383275038
453	15932	200	1620.2506916858
454	15926	194	4.0768216341553
454	15927	195	6.1146311434992
454	15928	196	8.1238958659168
454	15929	197	10.07226857951
454	15930	198	11.975930302181
454	15931	199	13.751272715454
454	15932	200	13.880561356815
455	15927	195	2.0378095093439
455	15928	196	2.0092647224176
455	15929	197	1.9483727135928
455	15930	198	1.9036617226712
455	15931	199	1.7753424132732
455	15932	200	0.12928864136057
456	15927	195	4.4290585903548
456	15928	196	5.4852832676338
456	15929	197	6.4197949691156
456	15930	198	7.340737888557
456	15931	199	7.8971625527147
456	15932	200	2.4591516963765
459	15928	196	2414.8708323571
459	15929	197	2412.0068498836
459	15930	198	2407.3947947501
459	15931	199	2402.6063379883
459	15932	200	2396.4215075286
460	15928	196	1578.4528444102
460	15929	197	1579.5044838274
460	15930	198	1581.3175874045
460	15931	199	1586.1676344201
460	15932	200	1592.4320156202
461	15929	197	3.9035555463673
461	15930	198	5.8214058272394
461	15931	199	7.7054297537466
461	15932	200	9.6555590937442
462	15930	198	1.9178502808721
462	15931	199	1.8840239265072
462	15932	200	1.9501293399977
463	15930	198	4.0997140834571
463	15931	199	5.0226217989374
463	15932	200	6.1968733187211
466	15931	199	2414.8713181916
466	15932	200	2411.9594073247
467	15931	199	1578.4526660144
467	15932	200	1579.5219044872
468	15932	200	3.9654431967067

